 xtb: 6.7.1 (edcfbbe)
          09222613103D

 48 49  0     0  0            999 V2000
    5.9743   -0.2597    0.0079 C   0  0  0  0  0  0  0  0  0  0  0  0
    4.9447    0.5848   -0.4932 O   0  0  0  0  0  0  0  0  0  0  0  0
    3.7920    0.5801    0.2665 C   0  0  0  0  0  0  0  0  0  0  0  0
    3.1725   -0.6794    0.1348 O   0  0  0  0  0  0  0  0  0  0  0  0
    1.9941   -0.8553    0.8950 C   0  0  0  0  0  0  0  0  0  0  0  0
    1.5637   -2.3132    0.6845 C   0  0  0  0  0  0  0  0  0  0  0  0
    2.3453   -3.2232    1.4170 O   0  0  0  0  0  0  0  0  0  0  0  0
    0.9216    0.1593    0.4497 C   0  0  0  0  0  0  0  0  0  0  0  0
   -0.1920    0.1648    1.3391 O   0  0  0  0  0  0  0  0  0  0  0  0
   -1.4949    0.0858    0.8289 C   0  0  0  0  0  0  0  0  0  0  0  0
   -1.5088    0.2278   -0.5661 O   0  0  0  0  0  0  0  0  0  0  0  0
   -2.7935    0.4963   -1.1121 C   0  0  0  0  0  0  0  0  0  0  0  0
   -3.0891    2.0084   -1.1956 C   0  0  0  0  0  0  0  0  0  0  0  0
   -4.3241    2.2343   -1.8308 O   0  0  0  0  0  0  0  0  0  0  0  0
   -3.9175   -0.2289   -0.3472 C   0  0  0  0  0  0  0  0  0  0  0  0
   -4.9856   -0.5652   -1.1940 O   0  0  0  0  0  0  0  0  0  0  0  0
   -3.3456   -1.5221    0.2420 C   0  0  0  0  0  0  0  0  0  0  0  0
   -4.3360   -2.2929    0.8704 O   0  0  0  0  0  0  0  0  0  0  0  0
   -2.2724   -1.1834    1.2898 C   0  0  0  0  0  0  0  0  0  0  0  0
   -1.4150   -2.2690    1.4989 O   0  0  0  0  0  0  0  0  0  0  0  0
    1.4944    1.5882    0.4410 C   0  0  0  0  0  0  0  0  0  0  0  0
    0.5979    2.5081   -0.1345 O   0  0  0  0  0  0  0  0  0  0  0  0
    2.8622    1.6804   -0.2556 C   0  0  0  0  0  0  0  0  0  0  0  0
    3.4520    2.9278   -0.0055 O   0  0  0  0  0  0  0  0  0  0  0  0
    5.6349   -1.2967    0.0513 H   0  0  0  0  0  0  0  0  0  0  0  0
    6.2844    0.0686    1.0052 H   0  0  0  0  0  0  0  0  0  0  0  0
    6.7995   -0.1607   -0.6919 H   0  0  0  0  0  0  0  0  0  0  0  0
    4.0177    0.7759    1.3382 H   0  0  0  0  0  0  0  0  0  0  0  0
    2.2088   -0.6762    1.9623 H   0  0  0  0  0  0  0  0  0  0  0  0
    1.7220   -2.5627   -0.3667 H   0  0  0  0  0  0  0  0  0  0  0  0
    0.5065   -2.4080    0.9369 H   0  0  0  0  0  0  0  0  0  0  0  0
    2.1503   -3.1181    2.3569 H   0  0  0  0  0  0  0  0  0  0  0  0
    0.5982   -0.1105   -0.5611 H   0  0  0  0  0  0  0  0  0  0  0  0
   -2.0268    0.9488    1.2775 H   0  0  0  0  0  0  0  0  0  0  0  0
   -2.7534    0.0778   -2.1262 H   0  0  0  0  0  0  0  0  0  0  0  0
   -2.2670    2.5185   -1.7056 H   0  0  0  0  0  0  0  0  0  0  0  0
   -3.1756    2.4244   -0.1885 H   0  0  0  0  0  0  0  0  0  0  0  0
   -4.2082    2.1845   -2.7885 H   0  0  0  0  0  0  0  0  0  0  0  0
   -4.2789    0.3999    0.4813 H   0  0  0  0  0  0  0  0  0  0  0  0
   -5.3909    0.2570   -1.5087 H   0  0  0  0  0  0  0  0  0  0  0  0
   -2.8742   -2.0970   -0.5721 H   0  0  0  0  0  0  0  0  0  0  0  0
   -5.1003   -2.3300    0.2772 H   0  0  0  0  0  0  0  0  0  0  0  0
   -2.7856   -0.9318    2.2306 H   0  0  0  0  0  0  0  0  0  0  0  0
   -1.9540   -3.0262    1.7697 H   0  0  0  0  0  0  0  0  0  0  0  0
    1.6130    1.9138    1.4817 H   0  0  0  0  0  0  0  0  0  0  0  0
    0.3090    2.1658   -0.9915 H   0  0  0  0  0  0  0  0  0  0  0  0
    2.7446    1.5177   -1.3394 H   0  0  0  0  0  0  0  0  0  0  0  0
    2.7857    3.6112   -0.1761 H   0  0  0  0  0  0  0  0  0  0  0  0
  1  2  1  0  0  0  0
  2  3  1  0  0  0  0
  3  4  1  0  0  0  0
  4  5  1  0  0  0  0
  5  6  1  0  0  0  0
  6  7  1  0  0  0  0
  5  8  1  0  0  0  0
  8  9  1  0  0  0  0
  9 10  1  0  0  0  0
 10 11  1  0  0  0  0
 11 12  1  0  0  0  0
 12 13  1  0  0  0  0
 13 14  1  0  0  0  0
 12 15  1  0  0  0  0
 15 16  1  0  0  0  0
 15 17  1  0  0  0  0
 17 18  1  0  0  0  0
 10 19  1  0  0  0  0
 17 19  1  0  0  0  0
 19 20  1  0  0  0  0
  8 21  1  0  0  0  0
 21 22  1  0  0  0  0
  3 23  1  0  0  0  0
 21 23  1  0  0  0  0
 23 24  1  0  0  0  0
  1 25  1  0  0  0  0
  1 26  1  0  0  0  0
  1 27  1  0  0  0  0
  3 28  1  0  0  0  0
  5 29  1  0  0  0  0
  6 30  1  0  0  0  0
  6 31  1  0  0  0  0
  7 32  1  0  0  0  0
  8 33  1  0  0  0  0
 10 34  1  0  0  0  0
 12 35  1  0  0  0  0
 13 36  1  0  0  0  0
 13 37  1  0  0  0  0
 14 38  1  0  0  0  0
 15 39  1  0  0  0  0
 16 40  1  0  0  0  0
 17 41  1  0  0  0  0
 18 42  1  0  0  0  0
 19 43  1  0  0  0  0
 20 44  1  0  0  0  0
 21 45  1  0  0  0  0
 22 46  1  0  0  0  0
 23 47  1  0  0  0  0
 24 48  1  0  0  0  0
M  END
