 xtb: 6.7.1 (edcfbbe)
          09212615233D

 48 49  0     0  0            999 V2000
    5.8052    0.6954    0.5357 C   0  0  0  0  0  0  0  0  0  0  0  0
    4.9814   -0.4115    0.1764 O   0  0  0  0  0  0  0  0  0  0  0  0
    3.7343   -0.0642   -0.2991 C   0  0  0  0  0  0  0  0  0  0  0  0
    2.9729    0.4396    0.7837 O   0  0  0  0  0  0  0  0  0  0  0  0
    1.6332    0.7594    0.4708 C   0  0  0  0  0  0  0  0  0  0  0  0
    1.0223    1.3624    1.7503 C   0  0  0  0  0  0  0  0  0  0  0  0
   -0.0876    2.1831    1.5129 O   0  0  0  0  0  0  0  0  0  0  0  0
    0.8950   -0.5007   -0.0032 C   0  0  0  0  0  0  0  0  0  0  0  0
   -0.4374   -0.1710   -0.3566 O   0  0  0  0  0  0  0  0  0  0  0  0
   -1.3824   -1.1939   -0.1640 C   0  0  0  0  0  0  0  0  0  0  0  0
   -1.9479   -1.1288    1.1155 O   0  0  0  0  0  0  0  0  0  0  0  0
   -2.6535    0.0951    1.3444 C   0  0  0  0  0  0  0  0  0  0  0  0
   -3.1438    0.0867    2.8009 C   0  0  0  0  0  0  0  0  0  0  0  0
   -3.2573    1.3780    3.3363 O   0  0  0  0  0  0  0  0  0  0  0  0
   -3.7921    0.2403    0.3246 C   0  0  0  0  0  0  0  0  0  0  0  0
   -4.5806    1.3847    0.5179 O   0  0  0  0  0  0  0  0  0  0  0  0
   -3.2023    0.2205   -1.0987 C   0  0  0  0  0  0  0  0  0  0  0  0
   -4.2119    0.2882   -2.0773 O   0  0  0  0  0  0  0  0  0  0  0  0
   -2.4312   -1.0872   -1.2777 C   0  0  0  0  0  0  0  0  0  0  0  0
   -1.7496   -1.1739   -2.5010 O   0  0  0  0  0  0  0  0  0  0  0  0
    1.6245   -1.0341   -1.2532 C   0  0  0  0  0  0  0  0  0  0  0  0
    1.0628   -2.2237   -1.7561 O   0  0  0  0  0  0  0  0  0  0  0  0
    3.0963   -1.3121   -0.9244 C   0  0  0  0  0  0  0  0  0  0  0  0
    3.8211   -1.6161   -2.0840 O   0  0  0  0  0  0  0  0  0  0  0  0
    5.3474    1.2647    1.3462 H   0  0  0  0  0  0  0  0  0  0  0  0
    5.9669    1.3425   -0.3309 H   0  0  0  0  0  0  0  0  0  0  0  0
    6.7450    0.2599    0.8611 H   0  0  0  0  0  0  0  0  0  0  0  0
    3.8116    0.7176   -1.0844 H   0  0  0  0  0  0  0  0  0  0  0  0
    1.6020    1.5015   -0.3429 H   0  0  0  0  0  0  0  0  0  0  0  0
    1.8203    1.9057    2.2680 H   0  0  0  0  0  0  0  0  0  0  0  0
    0.6784    0.5534    2.3976 H   0  0  0  0  0  0  0  0  0  0  0  0
    0.1979    2.9981    1.0744 H   0  0  0  0  0  0  0  0  0  0  0  0
    0.9098   -1.2540    0.7929 H   0  0  0  0  0  0  0  0  0  0  0  0
   -0.9049   -2.1805   -0.2059 H   0  0  0  0  0  0  0  0  0  0  0  0
   -1.9503    0.9323    1.2129 H   0  0  0  0  0  0  0  0  0  0  0  0
   -2.4493   -0.5325    3.3805 H   0  0  0  0  0  0  0  0  0  0  0  0
   -4.1407   -0.3534    2.8617 H   0  0  0  0  0  0  0  0  0  0  0  0
   -2.3790    1.7820    3.3947 H   0  0  0  0  0  0  0  0  0  0  0  0
   -4.4759   -0.6126    0.4235 H   0  0  0  0  0  0  0  0  0  0  0  0
   -4.0234    2.1375    0.7627 H   0  0  0  0  0  0  0  0  0  0  0  0
   -2.5004    1.0604   -1.2205 H   0  0  0  0  0  0  0  0  0  0  0  0
   -4.8936    0.9035   -1.7644 H   0  0  0  0  0  0  0  0  0  0  0  0
   -3.1366   -1.9255   -1.1714 H   0  0  0  0  0  0  0  0  0  0  0  0
   -2.3693   -0.9405   -3.2104 H   0  0  0  0  0  0  0  0  0  0  0  0
    1.5838   -0.2501   -2.0239 H   0  0  0  0  0  0  0  0  0  0  0  0
    0.2274   -2.0155   -2.2073 H   0  0  0  0  0  0  0  0  0  0  0  0
    3.1614   -2.1312   -0.1945 H   0  0  0  0  0  0  0  0  0  0  0  0
    3.4001   -2.3796   -2.5108 H   0  0  0  0  0  0  0  0  0  0  0  0
  1  2  1  0  0  0  0
  2  3  1  0  0  0  0
  3  4  1  0  0  0  0
  4  5  1  0  0  0  0
  5  6  1  0  0  0  0
  6  7  1  0  0  0  0
  5  8  1  0  0  0  0
  8  9  1  0  0  0  0
  9 10  1  0  0  0  0
 10 11  1  0  0  0  0
 11 12  1  0  0  0  0
 12 13  1  0  0  0  0
 13 14  1  0  0  0  0
 12 15  1  0  0  0  0
 15 16  1  0  0  0  0
 15 17  1  0  0  0  0
 17 18  1  0  0  0  0
 10 19  1  0  0  0  0
 17 19  1  0  0  0  0
 19 20  1  0  0  0  0
  8 21  1  0  0  0  0
 21 22  1  0  0  0  0
  3 23  1  0  0  0  0
 21 23  1  0  0  0  0
 23 24  1  0  0  0  0
  1 25  1  0  0  0  0
  1 26  1  0  0  0  0
  1 27  1  0  0  0  0
  3 28  1  0  0  0  0
  5 29  1  0  0  0  0
  6 30  1  0  0  0  0
  6 31  1  0  0  0  0
  7 32  1  0  0  0  0
  8 33  1  0  0  0  0
 10 34  1  0  0  0  0
 12 35  1  0  0  0  0
 13 36  1  0  0  0  0
 13 37  1  0  0  0  0
 14 38  1  0  0  0  0
 15 39  1  0  0  0  0
 16 40  1  0  0  0  0
 17 41  1  0  0  0  0
 18 42  1  0  0  0  0
 19 43  1  0  0  0  0
 20 44  1  0  0  0  0
 21 45  1  0  0  0  0
 22 46  1  0  0  0  0
 23 47  1  0  0  0  0
 24 48  1  0  0  0  0
M  END
