 xtb: 6.7.1 (edcfbbe)
          09212615433D

 48 49  0     0  0            999 V2000
    4.6875    0.4360    0.4555 C   0  0  0  0  0  0  0  0  0  0  0  0
    3.5662    0.2071   -0.3908 O   0  0  0  0  0  0  0  0  0  0  0  0
    3.0637    1.3682   -0.9967 C   0  0  0  0  0  0  0  0  0  0  0  0
    2.5462    2.2775   -0.0649 O   0  0  0  0  0  0  0  0  0  0  0  0
    1.1572    2.1420    0.2333 C   0  0  0  0  0  0  0  0  0  0  0  0
    0.9457    2.7757    1.6121 C   0  0  0  0  0  0  0  0  0  0  0  0
    1.2044    4.1542    1.6064 O   0  0  0  0  0  0  0  0  0  0  0  0
    0.7137    0.6700    0.2010 C   0  0  0  0  0  0  0  0  0  0  0  0
   -0.6608    0.6472    0.5693 O   0  0  0  0  0  0  0  0  0  0  0  0
   -1.1270   -0.2193    1.5803 C   0  0  0  0  0  0  0  0  0  0  0  0
   -2.5204   -0.1413    1.5456 O   0  0  0  0  0  0  0  0  0  0  0  0
   -3.0984   -0.6499    0.3464 C   0  0  0  0  0  0  0  0  0  0  0  0
   -4.6081   -0.3823    0.4481 C   0  0  0  0  0  0  0  0  0  0  0  0
   -5.2949   -0.7461   -0.7238 O   0  0  0  0  0  0  0  0  0  0  0  0
   -2.8002   -2.1501    0.1904 C   0  0  0  0  0  0  0  0  0  0  0  0
   -3.2506   -2.6532   -1.0425 O   0  0  0  0  0  0  0  0  0  0  0  0
   -1.2861   -2.3847    0.2662 C   0  0  0  0  0  0  0  0  0  0  0  0
   -0.9792   -3.7569    0.3780 O   0  0  0  0  0  0  0  0  0  0  0  0
   -0.7268   -1.7076    1.5209 C   0  0  0  0  0  0  0  0  0  0  0  0
    0.6583   -1.8766    1.6476 O   0  0  0  0  0  0  0  0  0  0  0  0
    0.9093    0.1198   -1.2336 C   0  0  0  0  0  0  0  0  0  0  0  0
    1.2006   -1.2486   -1.2599 O   0  0  0  0  0  0  0  0  0  0  0  0
    1.9936    0.9117   -1.9995 C   0  0  0  0  0  0  0  0  0  0  0  0
    1.3968    1.9903   -2.6654 O   0  0  0  0  0  0  0  0  0  0  0  0
    4.4264    1.1265    1.2594 H   0  0  0  0  0  0  0  0  0  0  0  0
    5.5189    0.8464   -0.1239 H   0  0  0  0  0  0  0  0  0  0  0  0
    4.9541   -0.5340    0.8640 H   0  0  0  0  0  0  0  0  0  0  0  0
    3.8853    1.9122   -1.4937 H   0  0  0  0  0  0  0  0  0  0  0  0
    0.5702    2.6977   -0.5100 H   0  0  0  0  0  0  0  0  0  0  0  0
    1.5884    2.2634    2.3415 H   0  0  0  0  0  0  0  0  0  0  0  0
   -0.0991    2.6567    1.9020 H   0  0  0  0  0  0  0  0  0  0  0  0
    2.0910    4.2983    1.2438 H   0  0  0  0  0  0  0  0  0  0  0  0
    1.3115    0.0873    0.9069 H   0  0  0  0  0  0  0  0  0  0  0  0
   -0.8306    0.1757    2.5658 H   0  0  0  0  0  0  0  0  0  0  0  0
   -2.6747   -0.1173   -0.5165 H   0  0  0  0  0  0  0  0  0  0  0  0
   -4.7561    0.6713    0.7006 H   0  0  0  0  0  0  0  0  0  0  0  0
   -5.0217   -0.9914    1.2550 H   0  0  0  0  0  0  0  0  0  0  0  0
   -5.1449   -0.0807   -1.4104 H   0  0  0  0  0  0  0  0  0  0  0  0
   -3.2743   -2.6941    1.0248 H   0  0  0  0  0  0  0  0  0  0  0  0
   -4.1824   -2.3931   -1.1577 H   0  0  0  0  0  0  0  0  0  0  0  0
   -0.8108   -1.9662   -0.6289 H   0  0  0  0  0  0  0  0  0  0  0  0
   -1.3365   -4.2124   -0.3976 H   0  0  0  0  0  0  0  0  0  0  0  0
   -1.2334   -2.1662    2.3886 H   0  0  0  0  0  0  0  0  0  0  0  0
    0.8404   -2.8227    1.5260 H   0  0  0  0  0  0  0  0  0  0  0  0
   -0.0350    0.2501   -1.7743 H   0  0  0  0  0  0  0  0  0  0  0  0
    2.0449   -1.3914   -0.8042 H   0  0  0  0  0  0  0  0  0  0  0  0
    2.4585    0.2133   -2.7086 H   0  0  0  0  0  0  0  0  0  0  0  0
    2.0192    2.3874   -3.2930 H   0  0  0  0  0  0  0  0  0  0  0  0
  1  2  1  0  0  0  0
  2  3  1  0  0  0  0
  3  4  1  0  0  0  0
  4  5  1  0  0  0  0
  5  6  1  0  0  0  0
  6  7  1  0  0  0  0
  5  8  1  0  0  0  0
  8  9  1  0  0  0  0
  9 10  1  0  0  0  0
 10 11  1  0  0  0  0
 11 12  1  0  0  0  0
 12 13  1  0  0  0  0
 13 14  1  0  0  0  0
 12 15  1  0  0  0  0
 15 16  1  0  0  0  0
 15 17  1  0  0  0  0
 17 18  1  0  0  0  0
 10 19  1  0  0  0  0
 17 19  1  0  0  0  0
 19 20  1  0  0  0  0
  8 21  1  0  0  0  0
 21 22  1  0  0  0  0
  3 23  1  0  0  0  0
 21 23  1  0  0  0  0
 23 24  1  0  0  0  0
  1 25  1  0  0  0  0
  1 26  1  0  0  0  0
  1 27  1  0  0  0  0
  3 28  1  0  0  0  0
  5 29  1  0  0  0  0
  6 30  1  0  0  0  0
  6 31  1  0  0  0  0
  7 32  1  0  0  0  0
  8 33  1  0  0  0  0
 10 34  1  0  0  0  0
 12 35  1  0  0  0  0
 13 36  1  0  0  0  0
 13 37  1  0  0  0  0
 14 38  1  0  0  0  0
 15 39  1  0  0  0  0
 16 40  1  0  0  0  0
 17 41  1  0  0  0  0
 18 42  1  0  0  0  0
 19 43  1  0  0  0  0
 20 44  1  0  0  0  0
 21 45  1  0  0  0  0
 22 46  1  0  0  0  0
 23 47  1  0  0  0  0
 24 48  1  0  0  0  0
M  END
