 xtb: 6.7.1 (edcfbbe)
          09222613173D

 48 49  0     0  0            999 V2000
    5.1105    2.7598   -0.9033 C   0  0  0  0  0  0  0  0  0  0  0  0
    4.7416    1.4135   -1.1326 O   0  0  0  0  0  0  0  0  0  0  0  0
    3.3860    1.1811   -1.0687 C   0  0  0  0  0  0  0  0  0  0  0  0
    2.9739    1.3052    0.2809 O   0  0  0  0  0  0  0  0  0  0  0  0
    1.6038    1.0906    0.4971 C   0  0  0  0  0  0  0  0  0  0  0  0
    1.3791    1.3703    1.9964 C   0  0  0  0  0  0  0  0  0  0  0  0
    0.0363    1.4764    2.3706 O   0  0  0  0  0  0  0  0  0  0  0  0
    1.1839   -0.3361    0.0828 C   0  0  0  0  0  0  0  0  0  0  0  0
   -0.2393   -0.4023    0.1411 O   0  0  0  0  0  0  0  0  0  0  0  0
   -0.8519   -1.4508    0.8279 C   0  0  0  0  0  0  0  0  0  0  0  0
   -1.6296   -0.9302    1.8824 O   0  0  0  0  0  0  0  0  0  0  0  0
   -2.6725   -0.0584    1.4580 C   0  0  0  0  0  0  0  0  0  0  0  0
   -3.3779    0.4471    2.7251 C   0  0  0  0  0  0  0  0  0  0  0  0
   -4.3166    1.4538    2.4275 O   0  0  0  0  0  0  0  0  0  0  0  0
   -3.6509   -0.7734    0.5144 C   0  0  0  0  0  0  0  0  0  0  0  0
   -4.6153    0.1031   -0.0093 O   0  0  0  0  0  0  0  0  0  0  0  0
   -2.8580   -1.3584   -0.6577 C   0  0  0  0  0  0  0  0  0  0  0  0
   -3.6675   -2.1216   -1.5185 O   0  0  0  0  0  0  0  0  0  0  0  0
   -1.7670   -2.2728   -0.1016 C   0  0  0  0  0  0  0  0  0  0  0  0
   -1.0180   -2.8584   -1.1322 O   0  0  0  0  0  0  0  0  0  0  0  0
    1.6497   -0.6374   -1.3515 C   0  0  0  0  0  0  0  0  0  0  0  0
    1.5780   -2.0036   -1.6642 O   0  0  0  0  0  0  0  0  0  0  0  0
    3.1146   -0.2342   -1.5830 C   0  0  0  0  0  0  0  0  0  0  0  0
    3.4035   -0.2742   -2.9521 O   0  0  0  0  0  0  0  0  0  0  0  0
    4.8187    3.0804    0.0999 H   0  0  0  0  0  0  0  0  0  0  0  0
    4.6477    3.4199   -1.6458 H   0  0  0  0  0  0  0  0  0  0  0  0
    6.1925    2.7932   -1.0047 H   0  0  0  0  0  0  0  0  0  0  0  0
    2.8220    1.9082   -1.6915 H   0  0  0  0  0  0  0  0  0  0  0  0
    1.0014    1.7970   -0.0989 H   0  0  0  0  0  0  0  0  0  0  0  0
    1.8404    2.3346    2.2223 H   0  0  0  0  0  0  0  0  0  0  0  0
    1.9005    0.5962    2.5754 H   0  0  0  0  0  0  0  0  0  0  0  0
   -0.3904    0.6149    2.2568 H   0  0  0  0  0  0  0  0  0  0  0  0
    1.6354   -1.0684    0.7649 H   0  0  0  0  0  0  0  0  0  0  0  0
   -0.1147   -2.1118    1.3013 H   0  0  0  0  0  0  0  0  0  0  0  0
   -2.2414    0.7966    0.9146 H   0  0  0  0  0  0  0  0  0  0  0  0
   -2.6214    0.7974    3.4343 H   0  0  0  0  0  0  0  0  0  0  0  0
   -3.9377   -0.3705    3.1850 H   0  0  0  0  0  0  0  0  0  0  0  0
   -3.8437    2.2632    2.1998 H   0  0  0  0  0  0  0  0  0  0  0  0
   -4.1377   -1.6015    1.0581 H   0  0  0  0  0  0  0  0  0  0  0  0
   -4.9685    0.6302    0.7257 H   0  0  0  0  0  0  0  0  0  0  0  0
   -2.3871   -0.5322   -1.2133 H   0  0  0  0  0  0  0  0  0  0  0  0
   -4.4650   -1.6051   -1.6876 H   0  0  0  0  0  0  0  0  0  0  0  0
   -2.2417   -3.0576    0.5086 H   0  0  0  0  0  0  0  0  0  0  0  0
   -1.6472   -3.1098   -1.8233 H   0  0  0  0  0  0  0  0  0  0  0  0
    1.0156   -0.0498   -2.0367 H   0  0  0  0  0  0  0  0  0  0  0  0
    0.6716   -2.3238   -1.5110 H   0  0  0  0  0  0  0  0  0  0  0  0
    3.7636   -0.9237   -1.0241 H   0  0  0  0  0  0  0  0  0  0  0  0
    3.1908   -1.1667   -3.2557 H   0  0  0  0  0  0  0  0  0  0  0  0
  1  2  1  0  0  0  0
  2  3  1  0  0  0  0
  3  4  1  0  0  0  0
  4  5  1  0  0  0  0
  5  6  1  0  0  0  0
  6  7  1  0  0  0  0
  5  8  1  0  0  0  0
  8  9  1  0  0  0  0
  9 10  1  0  0  0  0
 10 11  1  0  0  0  0
 11 12  1  0  0  0  0
 12 13  1  0  0  0  0
 13 14  1  0  0  0  0
 12 15  1  0  0  0  0
 15 16  1  0  0  0  0
 15 17  1  0  0  0  0
 17 18  1  0  0  0  0
 10 19  1  0  0  0  0
 17 19  1  0  0  0  0
 19 20  1  0  0  0  0
  8 21  1  0  0  0  0
 21 22  1  0  0  0  0
  3 23  1  0  0  0  0
 21 23  1  0  0  0  0
 23 24  1  0  0  0  0
  1 25  1  0  0  0  0
  1 26  1  0  0  0  0
  1 27  1  0  0  0  0
  3 28  1  0  0  0  0
  5 29  1  0  0  0  0
  6 30  1  0  0  0  0
  6 31  1  0  0  0  0
  7 32  1  0  0  0  0
  8 33  1  0  0  0  0
 10 34  1  0  0  0  0
 12 35  1  0  0  0  0
 13 36  1  0  0  0  0
 13 37  1  0  0  0  0
 14 38  1  0  0  0  0
 15 39  1  0  0  0  0
 16 40  1  0  0  0  0
 17 41  1  0  0  0  0
 18 42  1  0  0  0  0
 19 43  1  0  0  0  0
 20 44  1  0  0  0  0
 21 45  1  0  0  0  0
 22 46  1  0  0  0  0
 23 47  1  0  0  0  0
 24 48  1  0  0  0  0
M  END
