 xtb: 6.7.1 (edcfbbe)
          09222613043D

 48 49  0     0  0            999 V2000
    5.5557    1.3655    0.3702 C   0  0  0  0  0  0  0  0  0  0  0  0
    4.3868    1.4074   -0.4380 O   0  0  0  0  0  0  0  0  0  0  0  0
    3.2035    1.2567    0.2545 C   0  0  0  0  0  0  0  0  0  0  0  0
    3.0681   -0.0899    0.6542 O   0  0  0  0  0  0  0  0  0  0  0  0
    1.8936   -0.3310    1.3989 C   0  0  0  0  0  0  0  0  0  0  0  0
    1.9795   -1.7753    1.9055 C   0  0  0  0  0  0  0  0  0  0  0  0
    3.0237   -1.9446    2.8252 O   0  0  0  0  0  0  0  0  0  0  0  0
    0.6083   -0.0861    0.5738 C   0  0  0  0  0  0  0  0  0  0  0  0
   -0.4434   -0.1308    1.5334 O   0  0  0  0  0  0  0  0  0  0  0  0
   -1.6347   -0.8756    1.4565 C   0  0  0  0  0  0  0  0  0  0  0  0
   -2.7565   -0.0507    1.2816 O   0  0  0  0  0  0  0  0  0  0  0  0
   -3.0237    0.4168   -0.0348 C   0  0  0  0  0  0  0  0  0  0  0  0
   -4.2681    1.3135    0.0635 C   0  0  0  0  0  0  0  0  0  0  0  0
   -4.5665    1.9337   -1.1635 O   0  0  0  0  0  0  0  0  0  0  0  0
   -3.2668   -0.7670   -0.9820 C   0  0  0  0  0  0  0  0  0  0  0  0
   -3.4628   -0.3650   -2.3144 O   0  0  0  0  0  0  0  0  0  0  0  0
   -2.0392   -1.6807   -0.9531 C   0  0  0  0  0  0  0  0  0  0  0  0
   -2.2558   -2.8754   -1.6658 O   0  0  0  0  0  0  0  0  0  0  0  0
   -1.7144   -2.0812    0.4930 C   0  0  0  0  0  0  0  0  0  0  0  0
   -0.5442   -2.8490    0.5675 O   0  0  0  0  0  0  0  0  0  0  0  0
    0.6763    1.3043   -0.0945 C   0  0  0  0  0  0  0  0  0  0  0  0
   -0.2902    1.4860   -1.1044 O   0  0  0  0  0  0  0  0  0  0  0  0
    2.0576    1.6418   -0.6849 C   0  0  0  0  0  0  0  0  0  0  0  0
    2.1507    3.0175   -0.9374 O   0  0  0  0  0  0  0  0  0  0  0  0
    5.6749    0.3831    0.8312 H   0  0  0  0  0  0  0  0  0  0  0  0
    5.5114    2.1344    1.1478 H   0  0  0  0  0  0  0  0  0  0  0  0
    6.3838    1.5648   -0.3046 H   0  0  0  0  0  0  0  0  0  0  0  0
    3.1740    1.9125    1.1510 H   0  0  0  0  0  0  0  0  0  0  0  0
    1.8575    0.3507    2.2646 H   0  0  0  0  0  0  0  0  0  0  0  0
    2.1015   -2.4413    1.0434 H   0  0  0  0  0  0  0  0  0  0  0  0
    1.0552   -2.0305    2.4224 H   0  0  0  0  0  0  0  0  0  0  0  0
    3.8484   -1.6968    2.3870 H   0  0  0  0  0  0  0  0  0  0  0  0
    0.5149   -0.8746   -0.1773 H   0  0  0  0  0  0  0  0  0  0  0  0
   -1.7615   -1.2545    2.4816 H   0  0  0  0  0  0  0  0  0  0  0  0
   -2.1782    1.0074   -0.4112 H   0  0  0  0  0  0  0  0  0  0  0  0
   -4.1091    2.0432    0.8632 H   0  0  0  0  0  0  0  0  0  0  0  0
   -5.1358    0.7028    0.3235 H   0  0  0  0  0  0  0  0  0  0  0  0
   -3.9181    2.6290   -1.3373 H   0  0  0  0  0  0  0  0  0  0  0  0
   -4.1371   -1.3396   -0.6176 H   0  0  0  0  0  0  0  0  0  0  0  0
   -4.1013    0.3691   -2.3171 H   0  0  0  0  0  0  0  0  0  0  0  0
   -1.1973   -1.1339   -1.4026 H   0  0  0  0  0  0  0  0  0  0  0  0
   -2.6460   -2.6452   -2.5202 H   0  0  0  0  0  0  0  0  0  0  0  0
   -2.5762   -2.6732    0.8458 H   0  0  0  0  0  0  0  0  0  0  0  0
   -0.6618   -3.6083   -0.0229 H   0  0  0  0  0  0  0  0  0  0  0  0
    0.4331    2.0456    0.6760 H   0  0  0  0  0  0  0  0  0  0  0  0
   -0.0576    0.9577   -1.8820 H   0  0  0  0  0  0  0  0  0  0  0  0
    2.2108    1.0651   -1.6130 H   0  0  0  0  0  0  0  0  0  0  0  0
    1.3771    3.2916   -1.4532 H   0  0  0  0  0  0  0  0  0  0  0  0
  1  2  1  0  0  0  0
  2  3  1  0  0  0  0
  3  4  1  0  0  0  0
  4  5  1  0  0  0  0
  5  6  1  0  0  0  0
  6  7  1  0  0  0  0
  5  8  1  0  0  0  0
  8  9  1  0  0  0  0
  9 10  1  0  0  0  0
 10 11  1  0  0  0  0
 11 12  1  0  0  0  0
 12 13  1  0  0  0  0
 13 14  1  0  0  0  0
 12 15  1  0  0  0  0
 15 16  1  0  0  0  0
 15 17  1  0  0  0  0
 17 18  1  0  0  0  0
 10 19  1  0  0  0  0
 17 19  1  0  0  0  0
 19 20  1  0  0  0  0
  8 21  1  0  0  0  0
 21 22  1  0  0  0  0
  3 23  1  0  0  0  0
 21 23  1  0  0  0  0
 23 24  1  0  0  0  0
  1 25  1  0  0  0  0
  1 26  1  0  0  0  0
  1 27  1  0  0  0  0
  3 28  1  0  0  0  0
  5 29  1  0  0  0  0
  6 30  1  0  0  0  0
  6 31  1  0  0  0  0
  7 32  1  0  0  0  0
  8 33  1  0  0  0  0
 10 34  1  0  0  0  0
 12 35  1  0  0  0  0
 13 36  1  0  0  0  0
 13 37  1  0  0  0  0
 14 38  1  0  0  0  0
 15 39  1  0  0  0  0
 16 40  1  0  0  0  0
 17 41  1  0  0  0  0
 18 42  1  0  0  0  0
 19 43  1  0  0  0  0
 20 44  1  0  0  0  0
 21 45  1  0  0  0  0
 22 46  1  0  0  0  0
 23 47  1  0  0  0  0
 24 48  1  0  0  0  0
M  END
