 xtb: 6.7.1 (edcfbbe)
          09222617043D

 48 49  0     0  0            999 V2000
    5.7130   -0.7681    0.1918 C   0  0  0  0  0  0  0  0  0  0  0  0
    4.9044    0.3033    0.6377 O   0  0  0  0  0  0  0  0  0  0  0  0
    3.6073   -0.0449    0.9450 C   0  0  0  0  0  0  0  0  0  0  0  0
    2.9071   -0.2720   -0.2625 O   0  0  0  0  0  0  0  0  0  0  0  0
    1.5486   -0.6299   -0.1026 C   0  0  0  0  0  0  0  0  0  0  0  0
    1.0702   -0.9965   -1.5134 C   0  0  0  0  0  0  0  0  0  0  0  0
    1.8718   -1.9997   -2.0654 O   0  0  0  0  0  0  0  0  0  0  0  0
    0.7689    0.5263    0.5493 C   0  0  0  0  0  0  0  0  0  0  0  0
   -0.5737    0.1525    0.8266 O   0  0  0  0  0  0  0  0  0  0  0  0
   -1.5687    1.0346    0.4063 C   0  0  0  0  0  0  0  0  0  0  0  0
   -1.8830    0.9150   -0.9560 O   0  0  0  0  0  0  0  0  0  0  0  0
   -2.5324   -0.2968   -1.3393 C   0  0  0  0  0  0  0  0  0  0  0  0
   -2.8210   -0.1389   -2.8393 C   0  0  0  0  0  0  0  0  0  0  0  0
   -1.6560    0.1168   -3.5663 O   0  0  0  0  0  0  0  0  0  0  0  0
   -3.8050   -0.5513   -0.5183 C   0  0  0  0  0  0  0  0  0  0  0  0
   -4.3630   -1.8200   -0.7704 O   0  0  0  0  0  0  0  0  0  0  0  0
   -3.4449   -0.5139    0.9710 C   0  0  0  0  0  0  0  0  0  0  0  0
   -4.5824   -0.6666    1.7839 O   0  0  0  0  0  0  0  0  0  0  0  0
   -2.8179    0.8443    1.2831 C   0  0  0  0  0  0  0  0  0  0  0  0
   -2.4700    0.9742    2.6256 O   0  0  0  0  0  0  0  0  0  0  0  0
    1.4520    0.9210    1.8717 C   0  0  0  0  0  0  0  0  0  0  0  0
    0.9003    2.0763    2.4526 O   0  0  0  0  0  0  0  0  0  0  0  0
    2.9707    1.1144    1.7168 C   0  0  0  0  0  0  0  0  0  0  0  0
    3.5678    1.1972    2.9807 O   0  0  0  0  0  0  0  0  0  0  0  0
    5.3425   -1.1799   -0.7508 H   0  0  0  0  0  0  0  0  0  0  0  0
    5.7534   -1.5632    0.9441 H   0  0  0  0  0  0  0  0  0  0  0  0
    6.7057   -0.3492    0.0455 H   0  0  0  0  0  0  0  0  0  0  0  0
    3.5691   -0.9608    1.5704 H   0  0  0  0  0  0  0  0  0  0  0  0
    1.4717   -1.5133    0.5515 H   0  0  0  0  0  0  0  0  0  0  0  0
    1.0858   -0.0943   -2.1406 H   0  0  0  0  0  0  0  0  0  0  0  0
    0.0592   -1.3962   -1.4791 H   0  0  0  0  0  0  0  0  0  0  0  0
    2.7878   -1.7039   -1.9906 H   0  0  0  0  0  0  0  0  0  0  0  0
    0.7855    1.3830   -0.1410 H   0  0  0  0  0  0  0  0  0  0  0  0
   -1.2295    2.0756    0.5131 H   0  0  0  0  0  0  0  0  0  0  0  0
   -1.8568   -1.1471   -1.1753 H   0  0  0  0  0  0  0  0  0  0  0  0
   -3.5470    0.6787   -2.9692 H   0  0  0  0  0  0  0  0  0  0  0  0
   -3.2377   -1.0621   -3.2490 H   0  0  0  0  0  0  0  0  0  0  0  0
   -1.1935    0.8370   -3.1208 H   0  0  0  0  0  0  0  0  0  0  0  0
   -4.5431    0.2415   -0.7230 H   0  0  0  0  0  0  0  0  0  0  0  0
   -4.6177   -1.8873   -1.6962 H   0  0  0  0  0  0  0  0  0  0  0  0
   -2.7131   -1.3075    1.1823 H   0  0  0  0  0  0  0  0  0  0  0  0
   -5.0548   -1.4465    1.4681 H   0  0  0  0  0  0  0  0  0  0  0  0
   -3.5436    1.6272    0.9977 H   0  0  0  0  0  0  0  0  0  0  0  0
   -3.1776    0.5645    3.1410 H   0  0  0  0  0  0  0  0  0  0  0  0
    1.2613    0.1252    2.6001 H   0  0  0  0  0  0  0  0  0  0  0  0
    0.9605    2.8108    1.8293 H   0  0  0  0  0  0  0  0  0  0  0  0
    3.1660    2.0329    1.1361 H   0  0  0  0  0  0  0  0  0  0  0  0
    3.0022    1.7575    3.5311 H   0  0  0  0  0  0  0  0  0  0  0  0
  1  2  1  0  0  0  0
  2  3  1  0  0  0  0
  3  4  1  0  0  0  0
  4  5  1  0  0  0  0
  5  6  1  0  0  0  0
  6  7  1  0  0  0  0
  5  8  1  0  0  0  0
  8  9  1  0  0  0  0
  9 10  1  0  0  0  0
 10 11  1  0  0  0  0
 11 12  1  0  0  0  0
 12 13  1  0  0  0  0
 13 14  1  0  0  0  0
 12 15  1  0  0  0  0
 15 16  1  0  0  0  0
 15 17  1  0  0  0  0
 17 18  1  0  0  0  0
 10 19  1  0  0  0  0
 17 19  1  0  0  0  0
 19 20  1  0  0  0  0
  8 21  1  0  0  0  0
 21 22  1  0  0  0  0
  3 23  1  0  0  0  0
 21 23  1  0  0  0  0
 23 24  1  0  0  0  0
  1 25  1  0  0  0  0
  1 26  1  0  0  0  0
  1 27  1  0  0  0  0
  3 28  1  0  0  0  0
  5 29  1  0  0  0  0
  6 30  1  0  0  0  0
  6 31  1  0  0  0  0
  7 32  1  0  0  0  0
  8 33  1  0  0  0  0
 10 34  1  0  0  0  0
 12 35  1  0  0  0  0
 13 36  1  0  0  0  0
 13 37  1  0  0  0  0
 14 38  1  0  0  0  0
 15 39  1  0  0  0  0
 16 40  1  0  0  0  0
 17 41  1  0  0  0  0
 18 42  1  0  0  0  0
 19 43  1  0  0  0  0
 20 44  1  0  0  0  0
 21 45  1  0  0  0  0
 22 46  1  0  0  0  0
 23 47  1  0  0  0  0
 24 48  1  0  0  0  0
M  END
