 xtb: 6.7.1 (edcfbbe)
          09222613173D

 48 49  0     0  0            999 V2000
    5.0716    2.8646   -0.8153 C   0  0  0  0  0  0  0  0  0  0  0  0
    4.7042    1.5269   -1.0924 O   0  0  0  0  0  0  0  0  0  0  0  0
    3.3515    1.2847   -1.0062 C   0  0  0  0  0  0  0  0  0  0  0  0
    2.9667    1.3581    0.3551 O   0  0  0  0  0  0  0  0  0  0  0  0
    1.6026    1.1206    0.5749 C   0  0  0  0  0  0  0  0  0  0  0  0
    1.3558    1.3846    2.0733 C   0  0  0  0  0  0  0  0  0  0  0  0
    0.0091    1.5594    2.4085 O   0  0  0  0  0  0  0  0  0  0  0  0
    1.1988   -0.3086    0.1476 C   0  0  0  0  0  0  0  0  0  0  0  0
   -0.2200   -0.3747    0.2709 O   0  0  0  0  0  0  0  0  0  0  0  0
   -0.8188   -1.4278    0.9661 C   0  0  0  0  0  0  0  0  0  0  0  0
   -1.7111   -0.8818    1.9103 O   0  0  0  0  0  0  0  0  0  0  0  0
   -2.7391   -0.0820    1.3375 C   0  0  0  0  0  0  0  0  0  0  0  0
   -3.5703    0.4797    2.5003 C   0  0  0  0  0  0  0  0  0  0  0  0
   -4.5140    1.4240    2.0522 O   0  0  0  0  0  0  0  0  0  0  0  0
   -3.6060   -0.8974    0.3661 C   0  0  0  0  0  0  0  0  0  0  0  0
   -4.5393   -0.0942   -0.3094 O   0  0  0  0  0  0  0  0  0  0  0  0
   -2.6934   -1.5452   -0.6793 C   0  0  0  0  0  0  0  0  0  0  0  0
   -3.3978   -2.4107   -1.5359 O   0  0  0  0  0  0  0  0  0  0  0  0
   -1.6267   -2.3662    0.0457 C   0  0  0  0  0  0  0  0  0  0  0  0
   -0.7896   -3.0314   -0.8607 O   0  0  0  0  0  0  0  0  0  0  0  0
    1.6295   -0.5639   -1.3052 C   0  0  0  0  0  0  0  0  0  0  0  0
    1.6002   -1.9207   -1.6602 O   0  0  0  0  0  0  0  0  0  0  0  0
    3.0780   -0.1128   -1.5660 C   0  0  0  0  0  0  0  0  0  0  0  0
    3.3216   -0.0936   -2.9445 O   0  0  0  0  0  0  0  0  0  0  0  0
    4.8015    3.1409    0.2069 H   0  0  0  0  0  0  0  0  0  0  0  0
    4.5882    3.5524   -1.5184 H   0  0  0  0  0  0  0  0  0  0  0  0
    6.1507    2.9088   -0.9401 H   0  0  0  0  0  0  0  0  0  0  0  0
    2.7699    2.0304   -1.5898 H   0  0  0  0  0  0  0  0  0  0  0  0
    0.9893    1.8232   -0.0151 H   0  0  0  0  0  0  0  0  0  0  0  0
    1.8610    2.3189    2.3286 H   0  0  0  0  0  0  0  0  0  0  0  0
    1.8150    0.5746    2.6557 H   0  0  0  0  0  0  0  0  0  0  0  0
   -0.4634    0.7292    2.2538 H   0  0  0  0  0  0  0  0  0  0  0  0
    1.6813   -1.0460    0.8018 H   0  0  0  0  0  0  0  0  0  0  0  0
   -0.0840   -2.0073    1.5393 H   0  0  0  0  0  0  0  0  0  0  0  0
   -2.2902    0.7507    0.7745 H   0  0  0  0  0  0  0  0  0  0  0  0
   -2.8913    0.9069    3.2451 H   0  0  0  0  0  0  0  0  0  0  0  0
   -4.1394   -0.3269    2.9680 H   0  0  0  0  0  0  0  0  0  0  0  0
   -4.0535    2.2367    1.8111 H   0  0  0  0  0  0  0  0  0  0  0  0
   -4.1202   -1.6976    0.9260 H   0  0  0  0  0  0  0  0  0  0  0  0
   -4.9786    0.4680    0.3490 H   0  0  0  0  0  0  0  0  0  0  0  0
   -2.2039   -0.7498   -1.2630 H   0  0  0  0  0  0  0  0  0  0  0  0
   -4.1907   -1.9415   -1.8227 H   0  0  0  0  0  0  0  0  0  0  0  0
   -2.1289   -3.1012    0.6948 H   0  0  0  0  0  0  0  0  0  0  0  0
   -1.3615   -3.3806   -1.5597 H   0  0  0  0  0  0  0  0  0  0  0  0
    0.9594    0.0213   -1.9585 H   0  0  0  0  0  0  0  0  0  0  0  0
    0.7442   -2.3101   -1.4055 H   0  0  0  0  0  0  0  0  0  0  0  0
    3.7568   -0.8125   -1.0572 H   0  0  0  0  0  0  0  0  0  0  0  0
    3.1246   -0.9802   -3.2744 H   0  0  0  0  0  0  0  0  0  0  0  0
  1  2  1  0  0  0  0
  2  3  1  0  0  0  0
  3  4  1  0  0  0  0
  4  5  1  0  0  0  0
  5  6  1  0  0  0  0
  6  7  1  0  0  0  0
  5  8  1  0  0  0  0
  8  9  1  0  0  0  0
  9 10  1  0  0  0  0
 10 11  1  0  0  0  0
 11 12  1  0  0  0  0
 12 13  1  0  0  0  0
 13 14  1  0  0  0  0
 12 15  1  0  0  0  0
 15 16  1  0  0  0  0
 15 17  1  0  0  0  0
 17 18  1  0  0  0  0
 10 19  1  0  0  0  0
 17 19  1  0  0  0  0
 19 20  1  0  0  0  0
  8 21  1  0  0  0  0
 21 22  1  0  0  0  0
  3 23  1  0  0  0  0
 21 23  1  0  0  0  0
 23 24  1  0  0  0  0
  1 25  1  0  0  0  0
  1 26  1  0  0  0  0
  1 27  1  0  0  0  0
  3 28  1  0  0  0  0
  5 29  1  0  0  0  0
  6 30  1  0  0  0  0
  6 31  1  0  0  0  0
  7 32  1  0  0  0  0
  8 33  1  0  0  0  0
 10 34  1  0  0  0  0
 12 35  1  0  0  0  0
 13 36  1  0  0  0  0
 13 37  1  0  0  0  0
 14 38  1  0  0  0  0
 15 39  1  0  0  0  0
 16 40  1  0  0  0  0
 17 41  1  0  0  0  0
 18 42  1  0  0  0  0
 19 43  1  0  0  0  0
 20 44  1  0  0  0  0
 21 45  1  0  0  0  0
 22 46  1  0  0  0  0
 23 47  1  0  0  0  0
 24 48  1  0  0  0  0
M  END
