 xtb: 6.7.1 (edcfbbe)
          09222613123D

 48 49  0     0  0            999 V2000
    5.7149   -0.6555    0.0809 C   0  0  0  0  0  0  0  0  0  0  0  0
    4.8783    0.4254    0.4732 O   0  0  0  0  0  0  0  0  0  0  0  0
    3.6294    0.0568    0.9249 C   0  0  0  0  0  0  0  0  0  0  0  0
    2.8359   -0.3155   -0.1851 O   0  0  0  0  0  0  0  0  0  0  0  0
    1.5239   -0.7125    0.1638 C   0  0  0  0  0  0  0  0  0  0  0  0
    0.8905   -1.2880   -1.1051 C   0  0  0  0  0  0  0  0  0  0  0  0
    1.6768   -2.2965   -1.6732 O   0  0  0  0  0  0  0  0  0  0  0  0
    0.7596    0.4855    0.7553 C   0  0  0  0  0  0  0  0  0  0  0  0
   -0.5567    0.1141    1.1465 O   0  0  0  0  0  0  0  0  0  0  0  0
   -1.5871    0.9673    0.7177 C   0  0  0  0  0  0  0  0  0  0  0  0
   -1.7091    1.0965   -0.6690 O   0  0  0  0  0  0  0  0  0  0  0  0
   -2.3484    0.0474   -1.3930 C   0  0  0  0  0  0  0  0  0  0  0  0
   -2.6000    0.6017   -2.8073 C   0  0  0  0  0  0  0  0  0  0  0  0
   -3.1065   -0.3788   -3.6771 O   0  0  0  0  0  0  0  0  0  0  0  0
   -3.6592   -0.4296   -0.7492 C   0  0  0  0  0  0  0  0  0  0  0  0
   -4.1391   -1.5930   -1.3732 O   0  0  0  0  0  0  0  0  0  0  0  0
   -3.4075   -0.7517    0.7266 C   0  0  0  0  0  0  0  0  0  0  0  0
   -4.5844   -1.1466    1.3852 O   0  0  0  0  0  0  0  0  0  0  0  0
   -2.8922    0.5214    1.3973 C   0  0  0  0  0  0  0  0  0  0  0  0
   -2.6684    0.3599    2.7662 O   0  0  0  0  0  0  0  0  0  0  0  0
    1.5263    1.0394    1.9688 C   0  0  0  0  0  0  0  0  0  0  0  0
    0.9682    2.2313    2.4638 O   0  0  0  0  0  0  0  0  0  0  0  0
    3.0174    1.2590    1.6542 C   0  0  0  0  0  0  0  0  0  0  0  0
    3.7444    1.4583    2.8360 O   0  0  0  0  0  0  0  0  0  0  0  0
    5.2983   -1.1793   -0.7816 H   0  0  0  0  0  0  0  0  0  0  0  0
    5.8469   -1.3578    0.9095 H   0  0  0  0  0  0  0  0  0  0  0  0
    6.6684   -0.2050   -0.1810 H   0  0  0  0  0  0  0  0  0  0  0  0
    3.6899   -0.7965    1.6331 H   0  0  0  0  0  0  0  0  0  0  0  0
    1.5751   -1.5039    0.9301 H   0  0  0  0  0  0  0  0  0  0  0  0
    0.7261   -0.4707   -1.8205 H   0  0  0  0  0  0  0  0  0  0  0  0
   -0.0573   -1.7557   -0.8370 H   0  0  0  0  0  0  0  0  0  0  0  0
    2.5689   -1.9438   -1.7931 H   0  0  0  0  0  0  0  0  0  0  0  0
    0.6988    1.2624   -0.0219 H   0  0  0  0  0  0  0  0  0  0  0  0
   -1.3616    1.9929    1.0559 H   0  0  0  0  0  0  0  0  0  0  0  0
   -1.6889   -0.8284   -1.4563 H   0  0  0  0  0  0  0  0  0  0  0  0
   -1.6709    1.0419   -3.1816 H   0  0  0  0  0  0  0  0  0  0  0  0
   -3.3547    1.3898   -2.7515 H   0  0  0  0  0  0  0  0  0  0  0  0
   -2.3944   -0.9703   -3.9542 H   0  0  0  0  0  0  0  0  0  0  0  0
   -4.4128    0.3739   -0.8031 H   0  0  0  0  0  0  0  0  0  0  0  0
   -4.2009   -1.4194   -2.3285 H   0  0  0  0  0  0  0  0  0  0  0  0
   -2.6418   -1.5392    0.8060 H   0  0  0  0  0  0  0  0  0  0  0  0
   -5.0040   -1.8363    0.8523 H   0  0  0  0  0  0  0  0  0  0  0  0
   -3.6393    1.3173    1.2283 H   0  0  0  0  0  0  0  0  0  0  0  0
   -3.4103   -0.1548    3.1184 H   0  0  0  0  0  0  0  0  0  0  0  0
    1.4304    0.3199    2.7896 H   0  0  0  0  0  0  0  0  0  0  0  0
    1.0233    2.9224    1.7883 H   0  0  0  0  0  0  0  0  0  0  0  0
    3.1263    2.1273    0.9822 H   0  0  0  0  0  0  0  0  0  0  0  0
    3.2774    2.1169    3.3722 H   0  0  0  0  0  0  0  0  0  0  0  0
  1  2  1  0  0  0  0
  2  3  1  0  0  0  0
  3  4  1  0  0  0  0
  4  5  1  0  0  0  0
  5  6  1  0  0  0  0
  6  7  1  0  0  0  0
  5  8  1  0  0  0  0
  8  9  1  0  0  0  0
  9 10  1  0  0  0  0
 10 11  1  0  0  0  0
 11 12  1  0  0  0  0
 12 13  1  0  0  0  0
 13 14  1  0  0  0  0
 12 15  1  0  0  0  0
 15 16  1  0  0  0  0
 15 17  1  0  0  0  0
 17 18  1  0  0  0  0
 10 19  1  0  0  0  0
 17 19  1  0  0  0  0
 19 20  1  0  0  0  0
  8 21  1  0  0  0  0
 21 22  1  0  0  0  0
  3 23  1  0  0  0  0
 21 23  1  0  0  0  0
 23 24  1  0  0  0  0
  1 25  1  0  0  0  0
  1 26  1  0  0  0  0
  1 27  1  0  0  0  0
  3 28  1  0  0  0  0
  5 29  1  0  0  0  0
  6 30  1  0  0  0  0
  6 31  1  0  0  0  0
  7 32  1  0  0  0  0
  8 33  1  0  0  0  0
 10 34  1  0  0  0  0
 12 35  1  0  0  0  0
 13 36  1  0  0  0  0
 13 37  1  0  0  0  0
 14 38  1  0  0  0  0
 15 39  1  0  0  0  0
 16 40  1  0  0  0  0
 17 41  1  0  0  0  0
 18 42  1  0  0  0  0
 19 43  1  0  0  0  0
 20 44  1  0  0  0  0
 21 45  1  0  0  0  0
 22 46  1  0  0  0  0
 23 47  1  0  0  0  0
 24 48  1  0  0  0  0
M  END
