 xtb: 6.7.1 (edcfbbe)
          09222613203D

 48 49  0     0  0            999 V2000
    5.5195   -1.2415   -1.1752 C   0  0  0  0  0  0  0  0  0  0  0  0
    4.7057   -0.7940   -0.1084 O   0  0  0  0  0  0  0  0  0  0  0  0
    3.3529   -0.9460   -0.3199 C   0  0  0  0  0  0  0  0  0  0  0  0
    2.9300    0.0098   -1.2703 O   0  0  0  0  0  0  0  0  0  0  0  0
    1.5473   -0.0386   -1.5373 C   0  0  0  0  0  0  0  0  0  0  0  0
    1.2931    0.9501   -2.6831 C   0  0  0  0  0  0  0  0  0  0  0  0
    2.0634    0.6385   -3.8075 O   0  0  0  0  0  0  0  0  0  0  0  0
    0.7035    0.3117   -0.2914 C   0  0  0  0  0  0  0  0  0  0  0  0
   -0.6463    0.1415   -0.7008 O   0  0  0  0  0  0  0  0  0  0  0  0
   -1.6426    1.1163   -0.4946 C   0  0  0  0  0  0  0  0  0  0  0  0
   -2.8684    0.4684   -0.6433 O   0  0  0  0  0  0  0  0  0  0  0  0
   -3.2032   -0.4691    0.3731 C   0  0  0  0  0  0  0  0  0  0  0  0
   -4.4435   -1.2168   -0.1254 C   0  0  0  0  0  0  0  0  0  0  0  0
   -4.1437   -2.0442   -1.2119 O   0  0  0  0  0  0  0  0  0  0  0  0
   -3.4530    0.2838    1.6838 C   0  0  0  0  0  0  0  0  0  0  0  0
   -3.8292   -0.5513    2.7495 O   0  0  0  0  0  0  0  0  0  0  0  0
   -2.1704    1.0475    2.0252 C   0  0  0  0  0  0  0  0  0  0  0  0
   -2.3615    1.9327    3.1131 O   0  0  0  0  0  0  0  0  0  0  0  0
   -1.6923    1.9022    0.8423 C   0  0  0  0  0  0  0  0  0  0  0  0
   -0.4701    2.5245    1.1584 O   0  0  0  0  0  0  0  0  0  0  0  0
    1.1046   -0.6249    0.8559 C   0  0  0  0  0  0  0  0  0  0  0  0
    0.5722   -0.2447    2.1046 O   0  0  0  0  0  0  0  0  0  0  0  0
    2.6366   -0.7159    1.0131 C   0  0  0  0  0  0  0  0  0  0  0  0
    2.9553   -1.7731    1.8751 O   0  0  0  0  0  0  0  0  0  0  0  0
    5.3456   -0.6527   -2.0798 H   0  0  0  0  0  0  0  0  0  0  0  0
    5.3319   -2.2994   -1.3891 H   0  0  0  0  0  0  0  0  0  0  0  0
    6.5457   -1.1098   -0.8411 H   0  0  0  0  0  0  0  0  0  0  0  0
    3.1124   -1.9647   -0.6909 H   0  0  0  0  0  0  0  0  0  0  0  0
    1.2661   -1.0528   -1.8636 H   0  0  0  0  0  0  0  0  0  0  0  0
    1.5185    1.9649   -2.3246 H   0  0  0  0  0  0  0  0  0  0  0  0
    0.2477    0.8944   -2.9881 H   0  0  0  0  0  0  0  0  0  0  0  0
    2.9764    0.5452   -3.5078 H   0  0  0  0  0  0  0  0  0  0  0  0
    0.8993    1.3503   -0.0089 H   0  0  0  0  0  0  0  0  0  0  0  0
   -1.5964    1.8524   -1.3132 H   0  0  0  0  0  0  0  0  0  0  0  0
   -2.3745   -1.1810    0.5027 H   0  0  0  0  0  0  0  0  0  0  0  0
   -5.2076   -0.4740   -0.3924 H   0  0  0  0  0  0  0  0  0  0  0  0
   -4.8303   -1.8598    0.6677 H   0  0  0  0  0  0  0  0  0  0  0  0
   -3.6911   -1.5034   -1.8710 H   0  0  0  0  0  0  0  0  0  0  0  0
   -4.2833    0.9865    1.5512 H   0  0  0  0  0  0  0  0  0  0  0  0
   -3.1739   -1.2546    2.8432 H   0  0  0  0  0  0  0  0  0  0  0  0
   -1.3977    0.3101    2.2859 H   0  0  0  0  0  0  0  0  0  0  0  0
   -2.9435    1.4921    3.7447 H   0  0  0  0  0  0  0  0  0  0  0  0
   -2.4640    2.6728    0.6765 H   0  0  0  0  0  0  0  0  0  0  0  0
   -0.6212    2.9972    1.9889 H   0  0  0  0  0  0  0  0  0  0  0  0
    0.7073   -1.6269    0.6567 H   0  0  0  0  0  0  0  0  0  0  0  0
    0.7662    0.6944    2.2385 H   0  0  0  0  0  0  0  0  0  0  0  0
    3.0122    0.2405    1.4149 H   0  0  0  0  0  0  0  0  0  0  0  0
    2.3944   -1.6888    2.6585 H   0  0  0  0  0  0  0  0  0  0  0  0
  1  2  1  0  0  0  0
  2  3  1  0  0  0  0
  3  4  1  0  0  0  0
  4  5  1  0  0  0  0
  5  6  1  0  0  0  0
  6  7  1  0  0  0  0
  5  8  1  0  0  0  0
  8  9  1  0  0  0  0
  9 10  1  0  0  0  0
 10 11  1  0  0  0  0
 11 12  1  0  0  0  0
 12 13  1  0  0  0  0
 13 14  1  0  0  0  0
 12 15  1  0  0  0  0
 15 16  1  0  0  0  0
 15 17  1  0  0  0  0
 17 18  1  0  0  0  0
 10 19  1  0  0  0  0
 17 19  1  0  0  0  0
 19 20  1  0  0  0  0
  8 21  1  0  0  0  0
 21 22  1  0  0  0  0
  3 23  1  0  0  0  0
 21 23  1  0  0  0  0
 23 24  1  0  0  0  0
  1 25  1  0  0  0  0
  1 26  1  0  0  0  0
  1 27  1  0  0  0  0
  3 28  1  0  0  0  0
  5 29  1  0  0  0  0
  6 30  1  0  0  0  0
  6 31  1  0  0  0  0
  7 32  1  0  0  0  0
  8 33  1  0  0  0  0
 10 34  1  0  0  0  0
 12 35  1  0  0  0  0
 13 36  1  0  0  0  0
 13 37  1  0  0  0  0
 14 38  1  0  0  0  0
 15 39  1  0  0  0  0
 16 40  1  0  0  0  0
 17 41  1  0  0  0  0
 18 42  1  0  0  0  0
 19 43  1  0  0  0  0
 20 44  1  0  0  0  0
 21 45  1  0  0  0  0
 22 46  1  0  0  0  0
 23 47  1  0  0  0  0
 24 48  1  0  0  0  0
M  END
