 xtb: 6.7.1 (edcfbbe)
          09222613233D

 48 49  0     0  0            999 V2000
    5.5999    1.5421   -0.4562 C   0  0  0  0  0  0  0  0  0  0  0  0
    4.7527    0.5021   -0.0078 O   0  0  0  0  0  0  0  0  0  0  0  0
    3.5825    0.3702   -0.7233 C   0  0  0  0  0  0  0  0  0  0  0  0
    2.7336    1.4540   -0.3968 O   0  0  0  0  0  0  0  0  0  0  0  0
    1.4695    1.4056   -1.0233 C   0  0  0  0  0  0  0  0  0  0  0  0
    0.7612    2.7250   -0.6910 C   0  0  0  0  0  0  0  0  0  0  0  0
    1.5304    3.8235   -1.0926 O   0  0  0  0  0  0  0  0  0  0  0  0
    0.7002    0.1706   -0.5338 C   0  0  0  0  0  0  0  0  0  0  0  0
   -0.5710    0.1055   -1.1834 O   0  0  0  0  0  0  0  0  0  0  0  0
   -1.7151   -0.0831   -0.4252 C   0  0  0  0  0  0  0  0  0  0  0  0
   -1.5090   -1.1936    0.4354 O   0  0  0  0  0  0  0  0  0  0  0  0
   -2.5336   -1.4853    1.3837 C   0  0  0  0  0  0  0  0  0  0  0  0
   -2.7102   -3.0133    1.4083 C   0  0  0  0  0  0  0  0  0  0  0  0
   -1.6158   -3.6545    1.9959 O   0  0  0  0  0  0  0  0  0  0  0  0
   -3.8465   -0.7604    1.0636 C   0  0  0  0  0  0  0  0  0  0  0  0
   -4.8440   -1.0525    2.0058 O   0  0  0  0  0  0  0  0  0  0  0  0
   -3.6201    0.7663    0.9330 C   0  0  0  0  0  0  0  0  0  0  0  0
   -4.5395    1.3284    0.0362 O   0  0  0  0  0  0  0  0  0  0  0  0
   -2.2007    1.1073    0.4215 C   0  0  0  0  0  0  0  0  0  0  0  0
   -1.3277    1.4262    1.4697 O   0  0  0  0  0  0  0  0  0  0  0  0
    1.5114   -1.0857   -0.8780 C   0  0  0  0  0  0  0  0  0  0  0  0
    0.9510   -2.2545   -0.3243 O   0  0  0  0  0  0  0  0  0  0  0  0
    2.9485   -0.9754   -0.3464 C   0  0  0  0  0  0  0  0  0  0  0  0
    3.7448   -1.9906   -0.8903 O   0  0  0  0  0  0  0  0  0  0  0  0
    5.1244    2.5193   -0.3376 H   0  0  0  0  0  0  0  0  0  0  0  0
    5.8708    1.3959   -1.5076 H   0  0  0  0  0  0  0  0  0  0  0  0
    6.4910    1.4880    0.1645 H   0  0  0  0  0  0  0  0  0  0  0  0
    3.7746    0.3754   -1.8172 H   0  0  0  0  0  0  0  0  0  0  0  0
    1.5989    1.3289   -2.1152 H   0  0  0  0  0  0  0  0  0  0  0  0
    0.5560    2.7611    0.3868 H   0  0  0  0  0  0  0  0  0  0  0  0
   -0.1788    2.7786   -1.2413 H   0  0  0  0  0  0  0  0  0  0  0  0
    2.4096    3.7044   -0.7125 H   0  0  0  0  0  0  0  0  0  0  0  0
    0.5879    0.2354    0.5516 H   0  0  0  0  0  0  0  0  0  0  0  0
   -2.4897   -0.3007   -1.1772 H   0  0  0  0  0  0  0  0  0  0  0  0
   -2.1896   -1.1762    2.3871 H   0  0  0  0  0  0  0  0  0  0  0  0
   -2.8777   -3.3624    0.3803 H   0  0  0  0  0  0  0  0  0  0  0  0
   -3.5820   -3.2644    2.0164 H   0  0  0  0  0  0  0  0  0  0  0  0
   -0.8198   -3.4563    1.4857 H   0  0  0  0  0  0  0  0  0  0  0  0
   -4.2410   -1.1376    0.1129 H   0  0  0  0  0  0  0  0  0  0  0  0
   -4.5389   -0.8137    2.8903 H   0  0  0  0  0  0  0  0  0  0  0  0
   -3.7277    1.2246    1.9321 H   0  0  0  0  0  0  0  0  0  0  0  0
   -5.4324    1.0912    0.3167 H   0  0  0  0  0  0  0  0  0  0  0  0
   -2.2751    2.0012   -0.2017 H   0  0  0  0  0  0  0  0  0  0  0  0
   -1.0843    0.6201    1.9425 H   0  0  0  0  0  0  0  0  0  0  0  0
    1.5456   -1.1789   -1.9763 H   0  0  0  0  0  0  0  0  0  0  0  0
   -0.0110   -2.1417   -0.3326 H   0  0  0  0  0  0  0  0  0  0  0  0
    2.9284   -1.0399    0.7520 H   0  0  0  0  0  0  0  0  0  0  0  0
    3.3083   -2.8302   -0.6969 H   0  0  0  0  0  0  0  0  0  0  0  0
  1  2  1  0  0  0  0
  2  3  1  0  0  0  0
  3  4  1  0  0  0  0
  4  5  1  0  0  0  0
  5  6  1  0  0  0  0
  6  7  1  0  0  0  0
  5  8  1  0  0  0  0
  8  9  1  0  0  0  0
  9 10  1  0  0  0  0
 10 11  1  0  0  0  0
 11 12  1  0  0  0  0
 12 13  1  0  0  0  0
 13 14  1  0  0  0  0
 12 15  1  0  0  0  0
 15 16  1  0  0  0  0
 15 17  1  0  0  0  0
 17 18  1  0  0  0  0
 10 19  1  0  0  0  0
 17 19  1  0  0  0  0
 19 20  1  0  0  0  0
  8 21  1  0  0  0  0
 21 22  1  0  0  0  0
  3 23  1  0  0  0  0
 21 23  1  0  0  0  0
 23 24  1  0  0  0  0
  1 25  1  0  0  0  0
  1 26  1  0  0  0  0
  1 27  1  0  0  0  0
  3 28  1  0  0  0  0
  5 29  1  0  0  0  0
  6 30  1  0  0  0  0
  6 31  1  0  0  0  0
  7 32  1  0  0  0  0
  8 33  1  0  0  0  0
 10 34  1  0  0  0  0
 12 35  1  0  0  0  0
 13 36  1  0  0  0  0
 13 37  1  0  0  0  0
 14 38  1  0  0  0  0
 15 39  1  0  0  0  0
 16 40  1  0  0  0  0
 17 41  1  0  0  0  0
 18 42  1  0  0  0  0
 19 43  1  0  0  0  0
 20 44  1  0  0  0  0
 21 45  1  0  0  0  0
 22 46  1  0  0  0  0
 23 47  1  0  0  0  0
 24 48  1  0  0  0  0
M  END
