 xtb: 6.7.1 (edcfbbe)
          09222612573D

 48 49  0     0  0            999 V2000
    5.6225    0.9673    0.6049 C   0  0  0  0  0  0  0  0  0  0  0  0
    4.9409   -0.0839   -0.0688 O   0  0  0  0  0  0  0  0  0  0  0  0
    3.6145    0.1759   -0.3410 C   0  0  0  0  0  0  0  0  0  0  0  0
    2.8979    0.1606    0.8787 O   0  0  0  0  0  0  0  0  0  0  0  0
    1.5034    0.3571    0.7620 C   0  0  0  0  0  0  0  0  0  0  0  0
    0.9221    0.3487    2.1897 C   0  0  0  0  0  0  0  0  0  0  0  0
    0.5927    1.6282    2.6640 O   0  0  0  0  0  0  0  0  0  0  0  0
    0.8826   -0.7380   -0.1231 C   0  0  0  0  0  0  0  0  0  0  0  0
   -0.4799   -0.4625   -0.3961 O   0  0  0  0  0  0  0  0  0  0  0  0
   -1.4574   -1.2896    0.1668 C   0  0  0  0  0  0  0  0  0  0  0  0
   -1.9964   -0.7398    1.3355 O   0  0  0  0  0  0  0  0  0  0  0  0
   -2.6124    0.5315    1.1259 C   0  0  0  0  0  0  0  0  0  0  0  0
   -3.0180    1.1039    2.4964 C   0  0  0  0  0  0  0  0  0  0  0  0
   -2.2754    2.2346    2.8624 O   0  0  0  0  0  0  0  0  0  0  0  0
   -3.7953    0.3677    0.1598 C   0  0  0  0  0  0  0  0  0  0  0  0
   -4.5080    1.5570   -0.0518 O   0  0  0  0  0  0  0  0  0  0  0  0
   -3.2732   -0.2031   -1.1708 C   0  0  0  0  0  0  0  0  0  0  0  0
   -4.3223   -0.4569   -2.0740 O   0  0  0  0  0  0  0  0  0  0  0  0
   -2.5412   -1.5201   -0.9009 C   0  0  0  0  0  0  0  0  0  0  0  0
   -1.9062   -2.0239   -2.0463 O   0  0  0  0  0  0  0  0  0  0  0  0
    1.5906   -0.7870   -1.4836 C   0  0  0  0  0  0  0  0  0  0  0  0
    1.1575   -1.8837   -2.2468 O   0  0  0  0  0  0  0  0  0  0  0  0
    3.1094   -0.9011   -1.3114 C   0  0  0  0  0  0  0  0  0  0  0  0
    3.7641   -0.7132   -2.5355 O   0  0  0  0  0  0  0  0  0  0  0  0
    5.1893    1.1393    1.5923 H   0  0  0  0  0  0  0  0  0  0  0  0
    5.5807    1.8890    0.0160 H   0  0  0  0  0  0  0  0  0  0  0  0
    6.6518    0.6324    0.7004 H   0  0  0  0  0  0  0  0  0  0  0  0
    3.4917    1.1698   -0.8250 H   0  0  0  0  0  0  0  0  0  0  0  0
    1.2959    1.3299    0.2852 H   0  0  0  0  0  0  0  0  0  0  0  0
    1.6521   -0.1453    2.8403 H   0  0  0  0  0  0  0  0  0  0  0  0
   -0.0091   -0.2200    2.2059 H   0  0  0  0  0  0  0  0  0  0  0  0
    1.3962    2.1482    2.7939 H   0  0  0  0  0  0  0  0  0  0  0  0
    0.9937   -1.7110    0.3729 H   0  0  0  0  0  0  0  0  0  0  0  0
   -1.0303   -2.2563    0.4675 H   0  0  0  0  0  0  0  0  0  0  0  0
   -1.8759    1.2095    0.6670 H   0  0  0  0  0  0  0  0  0  0  0  0
   -2.9228    0.2996    3.2364 H   0  0  0  0  0  0  0  0  0  0  0  0
   -4.0593    1.4333    2.4597 H   0  0  0  0  0  0  0  0  0  0  0  0
   -1.3307    2.0101    2.9153 H   0  0  0  0  0  0  0  0  0  0  0  0
   -4.5165   -0.3393    0.5874 H   0  0  0  0  0  0  0  0  0  0  0  0
   -3.8935    2.2823   -0.2290 H   0  0  0  0  0  0  0  0  0  0  0  0
   -2.5560    0.5071   -1.6160 H   0  0  0  0  0  0  0  0  0  0  0  0
   -4.9710    0.2568   -1.9889 H   0  0  0  0  0  0  0  0  0  0  0  0
   -3.2673   -2.2484   -0.5085 H   0  0  0  0  0  0  0  0  0  0  0  0
   -2.5564   -2.0283   -2.7639 H   0  0  0  0  0  0  0  0  0  0  0  0
    1.3701    0.1547   -2.0142 H   0  0  0  0  0  0  0  0  0  0  0  0
    0.1846   -1.8907   -2.2665 H   0  0  0  0  0  0  0  0  0  0  0  0
    3.3526   -1.8841   -0.8819 H   0  0  0  0  0  0  0  0  0  0  0  0
    3.4174   -1.3682   -3.1586 H   0  0  0  0  0  0  0  0  0  0  0  0
  1  2  1  0  0  0  0
  2  3  1  0  0  0  0
  3  4  1  0  0  0  0
  4  5  1  0  0  0  0
  5  6  1  0  0  0  0
  6  7  1  0  0  0  0
  5  8  1  0  0  0  0
  8  9  1  0  0  0  0
  9 10  1  0  0  0  0
 10 11  1  0  0  0  0
 11 12  1  0  0  0  0
 12 13  1  0  0  0  0
 13 14  1  0  0  0  0
 12 15  1  0  0  0  0
 15 16  1  0  0  0  0
 15 17  1  0  0  0  0
 17 18  1  0  0  0  0
 10 19  1  0  0  0  0
 17 19  1  0  0  0  0
 19 20  1  0  0  0  0
  8 21  1  0  0  0  0
 21 22  1  0  0  0  0
  3 23  1  0  0  0  0
 21 23  1  0  0  0  0
 23 24  1  0  0  0  0
  1 25  1  0  0  0  0
  1 26  1  0  0  0  0
  1 27  1  0  0  0  0
  3 28  1  0  0  0  0
  5 29  1  0  0  0  0
  6 30  1  0  0  0  0
  6 31  1  0  0  0  0
  7 32  1  0  0  0  0
  8 33  1  0  0  0  0
 10 34  1  0  0  0  0
 12 35  1  0  0  0  0
 13 36  1  0  0  0  0
 13 37  1  0  0  0  0
 14 38  1  0  0  0  0
 15 39  1  0  0  0  0
 16 40  1  0  0  0  0
 17 41  1  0  0  0  0
 18 42  1  0  0  0  0
 19 43  1  0  0  0  0
 20 44  1  0  0  0  0
 21 45  1  0  0  0  0
 22 46  1  0  0  0  0
 23 47  1  0  0  0  0
 24 48  1  0  0  0  0
M  END
