 xtb: 6.7.1 (edcfbbe)
          09212615373D

 48 49  0     0  0            999 V2000
    5.6412   -0.1921   -0.8007 C   0  0  0  0  0  0  0  0  0  0  0  0
    4.8439    0.9250   -0.4166 O   0  0  0  0  0  0  0  0  0  0  0  0
    3.5624    0.6147    0.0029 C   0  0  0  0  0  0  0  0  0  0  0  0
    2.8203    0.0934   -1.0780 O   0  0  0  0  0  0  0  0  0  0  0  0
    1.4974   -0.2560   -0.7229 C   0  0  0  0  0  0  0  0  0  0  0  0
    0.8239   -0.8369   -1.9762 C   0  0  0  0  0  0  0  0  0  0  0  0
    1.1132   -2.1940   -2.1755 O   0  0  0  0  0  0  0  0  0  0  0  0
    0.6957    0.9449   -0.1784 C   0  0  0  0  0  0  0  0  0  0  0  0
   -0.5127    0.4308    0.3594 O   0  0  0  0  0  0  0  0  0  0  0  0
   -1.7285    0.8699   -0.1758 C   0  0  0  0  0  0  0  0  0  0  0  0
   -2.3335   -0.1646   -0.9158 O   0  0  0  0  0  0  0  0  0  0  0  0
   -2.5904   -1.3375   -0.1493 C   0  0  0  0  0  0  0  0  0  0  0  0
   -3.1735   -2.3774   -1.1190 C   0  0  0  0  0  0  0  0  0  0  0  0
   -3.3920   -3.6194   -0.4972 O   0  0  0  0  0  0  0  0  0  0  0  0
   -3.5544   -1.0325    1.0079 C   0  0  0  0  0  0  0  0  0  0  0  0
   -3.7358   -2.1393    1.8551 O   0  0  0  0  0  0  0  0  0  0  0  0
   -2.9827    0.1123    1.8529 C   0  0  0  0  0  0  0  0  0  0  0  0
   -3.8885    0.5349    2.8434 O   0  0  0  0  0  0  0  0  0  0  0  0
   -2.6887    1.3108    0.9461 C   0  0  0  0  0  0  0  0  0  0  0  0
   -2.1312    2.3839    1.6443 O   0  0  0  0  0  0  0  0  0  0  0  0
    1.4654    1.6974    0.9154 C   0  0  0  0  0  0  0  0  0  0  0  0
    0.8287    2.9302    1.1156 O   0  0  0  0  0  0  0  0  0  0  0  0
    2.9306    1.9177    0.5102 C   0  0  0  0  0  0  0  0  0  0  0  0
    3.6082    2.4082    1.6363 O   0  0  0  0  0  0  0  0  0  0  0  0
    5.2334   -0.6630   -1.6953 H   0  0  0  0  0  0  0  0  0  0  0  0
    5.6914   -0.9204    0.0132 H   0  0  0  0  0  0  0  0  0  0  0  0
    6.6268    0.2157   -1.0054 H   0  0  0  0  0  0  0  0  0  0  0  0
    3.5832   -0.1354    0.8228 H   0  0  0  0  0  0  0  0  0  0  0  0
    1.5162   -1.0223    0.0689 H   0  0  0  0  0  0  0  0  0  0  0  0
    1.1330   -0.2326   -2.8363 H   0  0  0  0  0  0  0  0  0  0  0  0
   -0.2594   -0.7715   -1.8627 H   0  0  0  0  0  0  0  0  0  0  0  0
    2.0535   -2.2946   -2.3795 H   0  0  0  0  0  0  0  0  0  0  0  0
    0.4862    1.6524   -0.9893 H   0  0  0  0  0  0  0  0  0  0  0  0
   -1.5802    1.6980   -0.8769 H   0  0  0  0  0  0  0  0  0  0  0  0
   -1.6462   -1.7064    0.2775 H   0  0  0  0  0  0  0  0  0  0  0  0
   -2.5039   -2.4643   -1.9796 H   0  0  0  0  0  0  0  0  0  0  0  0
   -4.1460   -2.0260   -1.4713 H   0  0  0  0  0  0  0  0  0  0  0  0
   -2.5519   -4.0917   -0.4069 H   0  0  0  0  0  0  0  0  0  0  0  0
   -4.5205   -0.7045    0.5894 H   0  0  0  0  0  0  0  0  0  0  0  0
   -3.9546   -2.9134    1.3049 H   0  0  0  0  0  0  0  0  0  0  0  0
   -2.0406   -0.2219    2.3130 H   0  0  0  0  0  0  0  0  0  0  0  0
   -4.1831   -0.2448    3.3375 H   0  0  0  0  0  0  0  0  0  0  0  0
   -3.6321    1.6161    0.4620 H   0  0  0  0  0  0  0  0  0  0  0  0
   -2.6476    2.5088    2.4570 H   0  0  0  0  0  0  0  0  0  0  0  0
    1.4419    1.0937    1.8345 H   0  0  0  0  0  0  0  0  0  0  0  0
    1.2820    3.4004    1.8319 H   0  0  0  0  0  0  0  0  0  0  0  0
    2.9620    2.6427   -0.3166 H   0  0  0  0  0  0  0  0  0  0  0  0
    4.5374    2.5603    1.4067 H   0  0  0  0  0  0  0  0  0  0  0  0
  1  2  1  0  0  0  0
  2  3  1  0  0  0  0
  3  4  1  0  0  0  0
  4  5  1  0  0  0  0
  5  6  1  0  0  0  0
  6  7  1  0  0  0  0
  5  8  1  0  0  0  0
  8  9  1  0  0  0  0
  9 10  1  0  0  0  0
 10 11  1  0  0  0  0
 11 12  1  0  0  0  0
 12 13  1  0  0  0  0
 13 14  1  0  0  0  0
 12 15  1  0  0  0  0
 15 16  1  0  0  0  0
 15 17  1  0  0  0  0
 17 18  1  0  0  0  0
 10 19  1  0  0  0  0
 17 19  1  0  0  0  0
 19 20  1  0  0  0  0
  8 21  1  0  0  0  0
 21 22  1  0  0  0  0
  3 23  1  0  0  0  0
 21 23  1  0  0  0  0
 23 24  1  0  0  0  0
  1 25  1  0  0  0  0
  1 26  1  0  0  0  0
  1 27  1  0  0  0  0
  3 28  1  0  0  0  0
  5 29  1  0  0  0  0
  6 30  1  0  0  0  0
  6 31  1  0  0  0  0
  7 32  1  0  0  0  0
  8 33  1  0  0  0  0
 10 34  1  0  0  0  0
 12 35  1  0  0  0  0
 13 36  1  0  0  0  0
 13 37  1  0  0  0  0
 14 38  1  0  0  0  0
 15 39  1  0  0  0  0
 16 40  1  0  0  0  0
 17 41  1  0  0  0  0
 18 42  1  0  0  0  0
 19 43  1  0  0  0  0
 20 44  1  0  0  0  0
 21 45  1  0  0  0  0
 22 46  1  0  0  0  0
 23 47  1  0  0  0  0
 24 48  1  0  0  0  0
M  END
