 xtb: 6.7.1 (edcfbbe)
          09222613253D

 48 49  0     0  0            999 V2000
    5.6826    1.2493   -0.5085 C   0  0  0  0  0  0  0  0  0  0  0  0
    4.8180    0.2173   -0.0760 O   0  0  0  0  0  0  0  0  0  0  0  0
    3.5881    0.2031   -0.6990 C   0  0  0  0  0  0  0  0  0  0  0  0
    2.8236    1.2860   -0.2137 O   0  0  0  0  0  0  0  0  0  0  0  0
    1.5365    1.3959   -0.7938 C   0  0  0  0  0  0  0  0  0  0  0  0
    0.9736    2.7323   -0.3055 C   0  0  0  0  0  0  0  0  0  0  0  0
    1.8466    3.7805   -0.6249 O   0  0  0  0  0  0  0  0  0  0  0  0
    0.6995    0.1584   -0.4236 C   0  0  0  0  0  0  0  0  0  0  0  0
   -0.5714    0.1912   -1.0610 O   0  0  0  0  0  0  0  0  0  0  0  0
   -1.7184   -0.0741   -0.3159 C   0  0  0  0  0  0  0  0  0  0  0  0
   -1.4224   -0.8041    0.8504 O   0  0  0  0  0  0  0  0  0  0  0  0
   -2.5344   -1.5489    1.3301 C   0  0  0  0  0  0  0  0  0  0  0  0
   -2.6887   -2.9113    0.6208 C   0  0  0  0  0  0  0  0  0  0  0  0
   -1.5614   -3.7248    0.7513 O   0  0  0  0  0  0  0  0  0  0  0  0
   -3.8343   -0.7289    1.2307 C   0  0  0  0  0  0  0  0  0  0  0  0
   -4.7533   -1.0347    2.2489 O   0  0  0  0  0  0  0  0  0  0  0  0
   -3.4966    0.7703    1.2461 C   0  0  0  0  0  0  0  0  0  0  0  0
   -4.6655    1.5449    1.1735 O   0  0  0  0  0  0  0  0  0  0  0  0
   -2.5606    1.1696    0.0839 C   0  0  0  0  0  0  0  0  0  0  0  0
   -1.7290    2.2211    0.4824 O   0  0  0  0  0  0  0  0  0  0  0  0
    1.4305   -1.1342   -0.8091 C   0  0  0  0  0  0  0  0  0  0  0  0
    0.7953   -2.2729   -0.2649 O   0  0  0  0  0  0  0  0  0  0  0  0
    2.9050   -1.1276   -0.3665 C   0  0  0  0  0  0  0  0  0  0  0  0
    3.6035   -2.1568   -1.0115 O   0  0  0  0  0  0  0  0  0  0  0  0
    5.2759    2.2348   -0.2665 H   0  0  0  0  0  0  0  0  0  0  0  0
    5.8558    1.1839   -1.5882 H   0  0  0  0  0  0  0  0  0  0  0  0
    6.6180    1.0958    0.0242 H   0  0  0  0  0  0  0  0  0  0  0  0
    3.6917    0.2897   -1.8012 H   0  0  0  0  0  0  0  0  0  0  0  0
    1.6365    1.4306   -1.8921 H   0  0  0  0  0  0  0  0  0  0  0  0
    0.8068    2.6759    0.7771 H   0  0  0  0  0  0  0  0  0  0  0  0
    0.0277    2.9368   -0.8018 H   0  0  0  0  0  0  0  0  0  0  0  0
    2.7202    3.5239   -0.3039 H   0  0  0  0  0  0  0  0  0  0  0  0
    0.5614    0.1738    0.6656 H   0  0  0  0  0  0  0  0  0  0  0  0
   -2.3512   -0.6783   -0.9889 H   0  0  0  0  0  0  0  0  0  0  0  0
   -2.2909   -1.7358    2.3836 H   0  0  0  0  0  0  0  0  0  0  0  0
   -2.9373   -2.7478   -0.4366 H   0  0  0  0  0  0  0  0  0  0  0  0
   -3.5191   -3.4408    1.0949 H   0  0  0  0  0  0  0  0  0  0  0  0
   -0.8450   -3.3562    0.2135 H   0  0  0  0  0  0  0  0  0  0  0  0
   -4.3678   -0.9613    0.3019 H   0  0  0  0  0  0  0  0  0  0  0  0
   -4.3280   -0.9267    3.1095 H   0  0  0  0  0  0  0  0  0  0  0  0
   -2.9605    0.9895    2.1882 H   0  0  0  0  0  0  0  0  0  0  0  0
   -5.3724    1.0553    1.6173 H   0  0  0  0  0  0  0  0  0  0  0  0
   -3.1757    1.4670   -0.7773 H   0  0  0  0  0  0  0  0  0  0  0  0
   -2.2893    2.9729    0.7112 H   0  0  0  0  0  0  0  0  0  0  0  0
    1.3831   -1.2614   -1.8964 H   0  0  0  0  0  0  0  0  0  0  0  0
    0.6417   -2.1023    0.6754 H   0  0  0  0  0  0  0  0  0  0  0  0
    2.9564   -1.2497    0.7284 H   0  0  0  0  0  0  0  0  0  0  0  0
    3.0951   -2.9712   -0.8986 H   0  0  0  0  0  0  0  0  0  0  0  0
  1  2  1  0  0  0  0
  2  3  1  0  0  0  0
  3  4  1  0  0  0  0
  4  5  1  0  0  0  0
  5  6  1  0  0  0  0
  6  7  1  0  0  0  0
  5  8  1  0  0  0  0
  8  9  1  0  0  0  0
  9 10  1  0  0  0  0
 10 11  1  0  0  0  0
 11 12  1  0  0  0  0
 12 13  1  0  0  0  0
 13 14  1  0  0  0  0
 12 15  1  0  0  0  0
 15 16  1  0  0  0  0
 15 17  1  0  0  0  0
 17 18  1  0  0  0  0
 10 19  1  0  0  0  0
 17 19  1  0  0  0  0
 19 20  1  0  0  0  0
  8 21  1  0  0  0  0
 21 22  1  0  0  0  0
  3 23  1  0  0  0  0
 21 23  1  0  0  0  0
 23 24  1  0  0  0  0
  1 25  1  0  0  0  0
  1 26  1  0  0  0  0
  1 27  1  0  0  0  0
  3 28  1  0  0  0  0
  5 29  1  0  0  0  0
  6 30  1  0  0  0  0
  6 31  1  0  0  0  0
  7 32  1  0  0  0  0
  8 33  1  0  0  0  0
 10 34  1  0  0  0  0
 12 35  1  0  0  0  0
 13 36  1  0  0  0  0
 13 37  1  0  0  0  0
 14 38  1  0  0  0  0
 15 39  1  0  0  0  0
 16 40  1  0  0  0  0
 17 41  1  0  0  0  0
 18 42  1  0  0  0  0
 19 43  1  0  0  0  0
 20 44  1  0  0  0  0
 21 45  1  0  0  0  0
 22 46  1  0  0  0  0
 23 47  1  0  0  0  0
 24 48  1  0  0  0  0
M  END
