 xtb: 6.7.1 (edcfbbe)
          09222613113D

 48 49  0     0  0            999 V2000
    5.0436    0.3319    0.1574 C   0  0  0  0  0  0  0  0  0  0  0  0
    4.0900   -0.0160   -0.8396 O   0  0  0  0  0  0  0  0  0  0  0  0
    3.2437    1.0312   -1.2165 C   0  0  0  0  0  0  0  0  0  0  0  0
    2.4485    1.4169   -0.1224 O   0  0  0  0  0  0  0  0  0  0  0  0
    1.0412    1.4284   -0.3204 C   0  0  0  0  0  0  0  0  0  0  0  0
    0.4463    1.8799    1.0173 C   0  0  0  0  0  0  0  0  0  0  0  0
    0.8578    3.1773    1.3556 O   0  0  0  0  0  0  0  0  0  0  0  0
    0.5520    0.0428   -0.7645 C   0  0  0  0  0  0  0  0  0  0  0  0
   -0.8101    0.1112   -1.1499 O   0  0  0  0  0  0  0  0  0  0  0  0
   -1.7241   -0.8485   -0.6148 C   0  0  0  0  0  0  0  0  0  0  0  0
   -1.3122   -1.4619    0.5560 O   0  0  0  0  0  0  0  0  0  0  0  0
   -1.8178   -0.8777    1.7580 C   0  0  0  0  0  0  0  0  0  0  0  0
   -1.1357   -1.5908    2.9307 C   0  0  0  0  0  0  0  0  0  0  0  0
    0.2580   -1.4154    2.9233 O   0  0  0  0  0  0  0  0  0  0  0  0
   -3.3548   -0.9975    1.8395 C   0  0  0  0  0  0  0  0  0  0  0  0
   -3.8949    0.0076    2.6530 O   0  0  0  0  0  0  0  0  0  0  0  0
   -3.9821   -0.9725    0.4237 C   0  0  0  0  0  0  0  0  0  0  0  0
   -4.1179   -2.2450   -0.1503 O   0  0  0  0  0  0  0  0  0  0  0  0
   -3.0949   -0.1465   -0.5126 C   0  0  0  0  0  0  0  0  0  0  0  0
   -3.0011    1.1566   -0.0016 O   0  0  0  0  0  0  0  0  0  0  0  0
    1.4011   -0.5004   -1.9482 C   0  0  0  0  0  0  0  0  0  0  0  0
    2.0209   -1.7203   -1.6381 O   0  0  0  0  0  0  0  0  0  0  0  0
    2.4410    0.5305   -2.4249 C   0  0  0  0  0  0  0  0  0  0  0  0
    1.8855    1.6383   -3.0803 O   0  0  0  0  0  0  0  0  0  0  0  0
    4.5462    0.5987    1.0913 H   0  0  0  0  0  0  0  0  0  0  0  0
    5.6579    1.1697   -0.1836 H   0  0  0  0  0  0  0  0  0  0  0  0
    5.6594   -0.5527    0.2961 H   0  0  0  0  0  0  0  0  0  0  0  0
    3.8429    1.9118   -1.5211 H   0  0  0  0  0  0  0  0  0  0  0  0
    0.7856    2.1646   -1.0953 H   0  0  0  0  0  0  0  0  0  0  0  0
    0.7360    1.1620    1.7978 H   0  0  0  0  0  0  0  0  0  0  0  0
   -0.6408    1.9215    0.9366 H   0  0  0  0  0  0  0  0  0  0  0  0
    1.8238    3.1954    1.3420 H   0  0  0  0  0  0  0  0  0  0  0  0
    0.6638   -0.6570    0.0723 H   0  0  0  0  0  0  0  0  0  0  0  0
   -1.8076   -1.6732   -1.3440 H   0  0  0  0  0  0  0  0  0  0  0  0
   -1.5529    0.1861    1.7916 H   0  0  0  0  0  0  0  0  0  0  0  0
   -1.3939   -2.6560    2.8991 H   0  0  0  0  0  0  0  0  0  0  0  0
   -1.5023   -1.1550    3.8621 H   0  0  0  0  0  0  0  0  0  0  0  0
    0.6124   -1.8881    2.1597 H   0  0  0  0  0  0  0  0  0  0  0  0
   -3.6202   -1.9444    2.3236 H   0  0  0  0  0  0  0  0  0  0  0  0
   -3.7453    0.8635    2.2251 H   0  0  0  0  0  0  0  0  0  0  0  0
   -4.9581   -0.4703    0.5057 H   0  0  0  0  0  0  0  0  0  0  0  0
   -4.7506   -2.7646    0.3641 H   0  0  0  0  0  0  0  0  0  0  0  0
   -3.5405   -0.1388   -1.5159 H   0  0  0  0  0  0  0  0  0  0  0  0
   -2.4292    1.6638   -0.5945 H   0  0  0  0  0  0  0  0  0  0  0  0
    0.7052   -0.7157   -2.7691 H   0  0  0  0  0  0  0  0  0  0  0  0
    2.8252   -1.5361   -1.1252 H   0  0  0  0  0  0  0  0  0  0  0  0
    3.1575    0.0070   -3.0770 H   0  0  0  0  0  0  0  0  0  0  0  0
    1.4415    1.3477   -3.8884 H   0  0  0  0  0  0  0  0  0  0  0  0
  1  2  1  0  0  0  0
  2  3  1  0  0  0  0
  3  4  1  0  0  0  0
  4  5  1  0  0  0  0
  5  6  1  0  0  0  0
  6  7  1  0  0  0  0
  5  8  1  0  0  0  0
  8  9  1  0  0  0  0
  9 10  1  0  0  0  0
 10 11  1  0  0  0  0
 11 12  1  0  0  0  0
 12 13  1  0  0  0  0
 13 14  1  0  0  0  0
 12 15  1  0  0  0  0
 15 16  1  0  0  0  0
 15 17  1  0  0  0  0
 17 18  1  0  0  0  0
 10 19  1  0  0  0  0
 17 19  1  0  0  0  0
 19 20  1  0  0  0  0
  8 21  1  0  0  0  0
 21 22  1  0  0  0  0
  3 23  1  0  0  0  0
 21 23  1  0  0  0  0
 23 24  1  0  0  0  0
  1 25  1  0  0  0  0
  1 26  1  0  0  0  0
  1 27  1  0  0  0  0
  3 28  1  0  0  0  0
  5 29  1  0  0  0  0
  6 30  1  0  0  0  0
  6 31  1  0  0  0  0
  7 32  1  0  0  0  0
  8 33  1  0  0  0  0
 10 34  1  0  0  0  0
 12 35  1  0  0  0  0
 13 36  1  0  0  0  0
 13 37  1  0  0  0  0
 14 38  1  0  0  0  0
 15 39  1  0  0  0  0
 16 40  1  0  0  0  0
 17 41  1  0  0  0  0
 18 42  1  0  0  0  0
 19 43  1  0  0  0  0
 20 44  1  0  0  0  0
 21 45  1  0  0  0  0
 22 46  1  0  0  0  0
 23 47  1  0  0  0  0
 24 48  1  0  0  0  0
M  END
