 xtb: 6.7.1 (edcfbbe)
          09222613213D

 48 49  0     0  0            999 V2000
    3.5011   -2.9871   -1.6165 C   0  0  0  0  0  0  0  0  0  0  0  0
    3.1470   -2.3829   -0.3858 O   0  0  0  0  0  0  0  0  0  0  0  0
    2.1810   -1.3981   -0.4946 C   0  0  0  0  0  0  0  0  0  0  0  0
    2.7066   -0.2714   -1.1751 O   0  0  0  0  0  0  0  0  0  0  0  0
    1.6664    0.6008   -1.5998 C   0  0  0  0  0  0  0  0  0  0  0  0
    2.3319    1.8880   -2.1014 C   0  0  0  0  0  0  0  0  0  0  0  0
    3.2662    1.6200   -3.1106 O   0  0  0  0  0  0  0  0  0  0  0  0
    0.6371    0.8442   -0.4683 C   0  0  0  0  0  0  0  0  0  0  0  0
   -0.4667   -0.0071   -0.7323 O   0  0  0  0  0  0  0  0  0  0  0  0
   -1.8104    0.4166   -0.7634 C   0  0  0  0  0  0  0  0  0  0  0  0
   -2.5887   -0.5749   -0.1632 O   0  0  0  0  0  0  0  0  0  0  0  0
   -2.3732   -0.7210    1.2401 C   0  0  0  0  0  0  0  0  0  0  0  0
   -3.2101   -1.9300    1.6708 C   0  0  0  0  0  0  0  0  0  0  0  0
   -2.7284   -3.1124    1.0981 O   0  0  0  0  0  0  0  0  0  0  0  0
   -2.7804    0.5571    1.9831 C   0  0  0  0  0  0  0  0  0  0  0  0
   -2.5287    0.4792    3.3647 O   0  0  0  0  0  0  0  0  0  0  0  0
   -2.0664    1.7765    1.3739 C   0  0  0  0  0  0  0  0  0  0  0  0
   -2.6307    2.9819    1.8432 O   0  0  0  0  0  0  0  0  0  0  0  0
   -2.2111    1.7733   -0.1515 C   0  0  0  0  0  0  0  0  0  0  0  0
   -1.5215    2.8403   -0.7468 O   0  0  0  0  0  0  0  0  0  0  0  0
    1.3169    0.5040    0.8834 C   0  0  0  0  0  0  0  0  0  0  0  0
    2.3866    1.3731    1.1238 O   0  0  0  0  0  0  0  0  0  0  0  0
    1.7664   -0.9688    0.9222 C   0  0  0  0  0  0  0  0  0  0  0  0
    0.7272   -1.7455    1.4521 O   0  0  0  0  0  0  0  0  0  0  0  0
    3.9302   -2.2548   -2.3041 H   0  0  0  0  0  0  0  0  0  0  0  0
    2.6266   -3.4529   -2.0840 H   0  0  0  0  0  0  0  0  0  0  0  0
    4.2413   -3.7460   -1.3755 H   0  0  0  0  0  0  0  0  0  0  0  0
    1.2923   -1.7619   -1.0470 H   0  0  0  0  0  0  0  0  0  0  0  0
    1.1324    0.1226   -2.4359 H   0  0  0  0  0  0  0  0  0  0  0  0
    2.8071    2.4115   -1.2598 H   0  0  0  0  0  0  0  0  0  0  0  0
    1.5727    2.5391   -2.5387 H   0  0  0  0  0  0  0  0  0  0  0  0
    3.8447    0.9165   -2.7909 H   0  0  0  0  0  0  0  0  0  0  0  0
    0.3414    1.8945   -0.4702 H   0  0  0  0  0  0  0  0  0  0  0  0
   -2.1288    0.4213   -1.8184 H   0  0  0  0  0  0  0  0  0  0  0  0
   -1.3108   -0.9405    1.4192 H   0  0  0  0  0  0  0  0  0  0  0  0
   -4.2549   -1.7516    1.3792 H   0  0  0  0  0  0  0  0  0  0  0  0
   -3.1554   -2.0536    2.7539 H   0  0  0  0  0  0  0  0  0  0  0  0
   -2.6203   -2.9425    0.1542 H   0  0  0  0  0  0  0  0  0  0  0  0
   -3.8627    0.7092    1.8878 H   0  0  0  0  0  0  0  0  0  0  0  0
   -1.6398    0.1282    3.5032 H   0  0  0  0  0  0  0  0  0  0  0  0
   -1.0014    1.7496    1.6479 H   0  0  0  0  0  0  0  0  0  0  0  0
   -2.7965    2.8784    2.7887 H   0  0  0  0  0  0  0  0  0  0  0  0
   -3.2901    1.8669   -0.3654 H   0  0  0  0  0  0  0  0  0  0  0  0
   -1.7827    3.6399   -0.2697 H   0  0  0  0  0  0  0  0  0  0  0  0
    0.6179    0.6483    1.7115 H   0  0  0  0  0  0  0  0  0  0  0  0
    3.1006    1.1375    0.5149 H   0  0  0  0  0  0  0  0  0  0  0  0
    2.6609   -1.0362    1.5628 H   0  0  0  0  0  0  0  0  0  0  0  0
    0.9568   -2.6787    1.3737 H   0  0  0  0  0  0  0  0  0  0  0  0
  1  2  1  0  0  0  0
  2  3  1  0  0  0  0
  3  4  1  0  0  0  0
  4  5  1  0  0  0  0
  5  6  1  0  0  0  0
  6  7  1  0  0  0  0
  5  8  1  0  0  0  0
  8  9  1  0  0  0  0
  9 10  1  0  0  0  0
 10 11  1  0  0  0  0
 11 12  1  0  0  0  0
 12 13  1  0  0  0  0
 13 14  1  0  0  0  0
 12 15  1  0  0  0  0
 15 16  1  0  0  0  0
 15 17  1  0  0  0  0
 17 18  1  0  0  0  0
 10 19  1  0  0  0  0
 17 19  1  0  0  0  0
 19 20  1  0  0  0  0
  8 21  1  0  0  0  0
 21 22  1  0  0  0  0
  3 23  1  0  0  0  0
 21 23  1  0  0  0  0
 23 24  1  0  0  0  0
  1 25  1  0  0  0  0
  1 26  1  0  0  0  0
  1 27  1  0  0  0  0
  3 28  1  0  0  0  0
  5 29  1  0  0  0  0
  6 30  1  0  0  0  0
  6 31  1  0  0  0  0
  7 32  1  0  0  0  0
  8 33  1  0  0  0  0
 10 34  1  0  0  0  0
 12 35  1  0  0  0  0
 13 36  1  0  0  0  0
 13 37  1  0  0  0  0
 14 38  1  0  0  0  0
 15 39  1  0  0  0  0
 16 40  1  0  0  0  0
 17 41  1  0  0  0  0
 18 42  1  0  0  0  0
 19 43  1  0  0  0  0
 20 44  1  0  0  0  0
 21 45  1  0  0  0  0
 22 46  1  0  0  0  0
 23 47  1  0  0  0  0
 24 48  1  0  0  0  0
M  END
