 xtb: 6.7.1 (edcfbbe)
          09192616353D

 48 49  0     0  0            999 V2000
   -4.2456    3.0768    1.0875 C   0  0  0  0  0  0  0  0  0  0  0  0
   -3.5967    1.9530    1.6743 O   0  0  0  0  0  0  0  0  0  0  0  0
   -3.1821    0.9865    0.7693 C   0  0  0  0  0  0  0  0  0  0  0  0
   -2.1965    1.5498   -0.0726 O   0  0  0  0  0  0  0  0  0  0  0  0
   -1.6433    0.6561   -1.0194 C   0  0  0  0  0  0  0  0  0  0  0  0
   -2.6427    0.3273   -2.1530 C   0  0  0  0  0  0  0  0  0  0  0  0
   -1.9945   -0.0341   -3.3464 O   0  0  0  0  0  0  0  0  0  0  0  0
   -1.0656   -0.6050   -0.3571 C   0  0  0  0  0  0  0  0  0  0  0  0
    0.1364   -0.2445    0.3034 O   0  0  0  0  0  0  0  0  0  0  0  0
    1.1531   -1.2067    0.3031 C   0  0  0  0  0  0  0  0  0  0  0  0
    1.9069   -1.1536   -0.8840 O   0  0  0  0  0  0  0  0  0  0  0  0
    2.8462   -0.0839   -0.8661 C   0  0  0  0  0  0  0  0  0  0  0  0
    3.3070    0.2152   -2.2937 C   0  0  0  0  0  0  0  0  0  0  0  0
    4.0121    1.4271   -2.3728 O   0  0  0  0  0  0  0  0  0  0  0  0
    4.0220   -0.4720    0.0484 C   0  0  0  0  0  0  0  0  0  0  0  0
    4.6846    0.7133    0.4009 O   0  0  0  0  0  0  0  0  0  0  0  0
    3.4950   -1.2960    1.2490 C   0  0  0  0  0  0  0  0  0  0  0  0
    3.6639   -2.6741    1.0354 O   0  0  0  0  0  0  0  0  0  0  0  0
    2.0257   -0.9557    1.5636 C   0  0  0  0  0  0  0  0  0  0  0  0
    1.9723    0.3706    2.0035 O   0  0  0  0  0  0  0  0  0  0  0  0
   -2.0388   -1.2505    0.6496 C   0  0  0  0  0  0  0  0  0  0  0  0
   -3.0344   -1.9263   -0.0714 O   0  0  0  0  0  0  0  0  0  0  0  0
   -2.6260   -0.1868    1.5924 C   0  0  0  0  0  0  0  0  0  0  0  0
   -1.6249    0.2275    2.4805 O   0  0  0  0  0  0  0  0  0  0  0  0
   -3.5663    3.6029    0.4159 H   0  0  0  0  0  0  0  0  0  0  0  0
   -5.1341    2.7544    0.5378 H   0  0  0  0  0  0  0  0  0  0  0  0
   -4.5265    3.7142    1.9208 H   0  0  0  0  0  0  0  0  0  0  0  0
   -4.0344    0.6325    0.1563 H   0  0  0  0  0  0  0  0  0  0  0  0
   -0.8095    1.2182   -1.4551 H   0  0  0  0  0  0  0  0  0  0  0  0
   -3.1967    1.2426   -2.3781 H   0  0  0  0  0  0  0  0  0  0  0  0
   -3.3398   -0.4527   -1.8348 H   0  0  0  0  0  0  0  0  0  0  0  0
   -1.6978   -0.9525   -3.2985 H   0  0  0  0  0  0  0  0  0  0  0  0
   -0.8472   -1.3379   -1.1436 H   0  0  0  0  0  0  0  0  0  0  0  0
    0.7338   -2.2211    0.3250 H   0  0  0  0  0  0  0  0  0  0  0  0
    2.3751    0.8171   -0.4527 H   0  0  0  0  0  0  0  0  0  0  0  0
    3.9235   -0.6172   -2.6619 H   0  0  0  0  0  0  0  0  0  0  0  0
    2.4340    0.3149   -2.9427 H   0  0  0  0  0  0  0  0  0  0  0  0
    4.6034    1.4967   -1.6053 H   0  0  0  0  0  0  0  0  0  0  0  0
    4.7073   -1.1364   -0.5058 H   0  0  0  0  0  0  0  0  0  0  0  0
    5.3838    0.5289    1.0444 H   0  0  0  0  0  0  0  0  0  0  0  0
    4.0840   -1.0563    2.1400 H   0  0  0  0  0  0  0  0  0  0  0  0
    3.2300   -2.9281    0.2077 H   0  0  0  0  0  0  0  0  0  0  0  0
    1.6730   -1.6321    2.3582 H   0  0  0  0  0  0  0  0  0  0  0  0
    1.0441    0.6535    2.0145 H   0  0  0  0  0  0  0  0  0  0  0  0
   -1.4532   -1.9449    1.2705 H   0  0  0  0  0  0  0  0  0  0  0  0
   -3.5197   -2.5297    0.5112 H   0  0  0  0  0  0  0  0  0  0  0  0
   -3.4711   -0.6231    2.1509 H   0  0  0  0  0  0  0  0  0  0  0  0
   -1.9298    1.0424    2.9101 H   0  0  0  0  0  0  0  0  0  0  0  0
  1  2  1  0  0  0  0
  2  3  1  0  0  0  0
  3  4  1  0  0  0  0
  4  5  1  0  0  0  0
  5  6  1  0  0  0  0
  6  7  1  0  0  0  0
  5  8  1  0  0  0  0
  8  9  1  0  0  0  0
  9 10  1  0  0  0  0
 10 11  1  0  0  0  0
 11 12  1  0  0  0  0
 12 13  1  0  0  0  0
 13 14  1  0  0  0  0
 12 15  1  0  0  0  0
 15 16  1  0  0  0  0
 15 17  1  0  0  0  0
 17 18  1  0  0  0  0
 10 19  1  0  0  0  0
 17 19  1  0  0  0  0
 19 20  1  0  0  0  0
  8 21  1  0  0  0  0
 21 22  1  0  0  0  0
  3 23  1  0  0  0  0
 21 23  1  0  0  0  0
 23 24  1  0  0  0  0
  1 25  1  0  0  0  0
  1 26  1  0  0  0  0
  1 27  1  0  0  0  0
  3 28  1  0  0  0  0
  5 29  1  0  0  0  0
  6 30  1  0  0  0  0
  6 31  1  0  0  0  0
  7 32  1  0  0  0  0
  8 33  1  0  0  0  0
 10 34  1  0  0  0  0
 12 35  1  0  0  0  0
 13 36  1  0  0  0  0
 13 37  1  0  0  0  0
 14 38  1  0  0  0  0
 15 39  1  0  0  0  0
 16 40  1  0  0  0  0
 17 41  1  0  0  0  0
 18 42  1  0  0  0  0
 19 43  1  0  0  0  0
 20 44  1  0  0  0  0
 21 45  1  0  0  0  0
 22 46  1  0  0  0  0
 23 47  1  0  0  0  0
 24 48  1  0  0  0  0
M  END
