 xtb: 6.7.1 (edcfbbe)
          09222613083D

 48 49  0     0  0            999 V2000
    5.5447    1.7605   -0.8059 C   0  0  0  0  0  0  0  0  0  0  0  0
    4.7879    0.7448   -0.1608 O   0  0  0  0  0  0  0  0  0  0  0  0
    3.5649    0.4805   -0.7416 C   0  0  0  0  0  0  0  0  0  0  0  0
    2.6887    1.5546   -0.4670 O   0  0  0  0  0  0  0  0  0  0  0  0
    1.3961    1.3857   -1.0154 C   0  0  0  0  0  0  0  0  0  0  0  0
    0.6386    2.6987   -0.7931 C   0  0  0  0  0  0  0  0  0  0  0  0
    1.2181    3.7521   -1.5150 O   0  0  0  0  0  0  0  0  0  0  0  0
    0.7061    0.1638   -0.3841 C   0  0  0  0  0  0  0  0  0  0  0  0
   -0.5527   -0.0350   -1.0147 O   0  0  0  0  0  0  0  0  0  0  0  0
   -1.6893   -0.2348   -0.2307 C   0  0  0  0  0  0  0  0  0  0  0  0
   -1.3738   -0.8931    0.9759 O   0  0  0  0  0  0  0  0  0  0  0  0
   -2.4856   -1.6015    1.5156 C   0  0  0  0  0  0  0  0  0  0  0  0
   -2.4880   -3.0625    1.0199 C   0  0  0  0  0  0  0  0  0  0  0  0
   -1.2955   -3.7331    1.3209 O   0  0  0  0  0  0  0  0  0  0  0  0
   -3.8369   -0.9283    1.1904 C   0  0  0  0  0  0  0  0  0  0  0  0
   -4.8075   -1.2199    2.1613 O   0  0  0  0  0  0  0  0  0  0  0  0
   -3.7306    0.6005    0.9603 C   0  0  0  0  0  0  0  0  0  0  0  0
   -4.8358    1.0465    0.2160 O   0  0  0  0  0  0  0  0  0  0  0  0
   -2.4449    1.0387    0.2104 C   0  0  0  0  0  0  0  0  0  0  0  0
   -1.6376    1.8384    1.0322 O   0  0  0  0  0  0  0  0  0  0  0  0
    1.5738   -1.0940   -0.5414 C   0  0  0  0  0  0  0  0  0  0  0  0
    1.0728   -2.1814    0.2001 O   0  0  0  0  0  0  0  0  0  0  0  0
    3.0365   -0.8280   -0.1393 C   0  0  0  0  0  0  0  0  0  0  0  0
    3.8640   -1.8690   -0.5837 O   0  0  0  0  0  0  0  0  0  0  0  0
    5.0335    2.7234   -0.7468 H   0  0  0  0  0  0  0  0  0  0  0  0
    5.7203    1.5004   -1.8543 H   0  0  0  0  0  0  0  0  0  0  0  0
    6.4887    1.8054   -0.2696 H   0  0  0  0  0  0  0  0  0  0  0  0
    3.6587    0.3560   -1.8419 H   0  0  0  0  0  0  0  0  0  0  0  0
    1.4778    1.2074   -2.1010 H   0  0  0  0  0  0  0  0  0  0  0  0
    0.6130    2.9237    0.2791 H   0  0  0  0  0  0  0  0  0  0  0  0
   -0.3815    2.5913   -1.1604 H   0  0  0  0  0  0  0  0  0  0  0  0
    2.1350    3.8414   -1.2239 H   0  0  0  0  0  0  0  0  0  0  0  0
    0.5702    0.3637    0.6847 H   0  0  0  0  0  0  0  0  0  0  0  0
   -2.3465   -0.8412   -0.8692 H   0  0  0  0  0  0  0  0  0  0  0  0
   -2.3103   -1.6040    2.5977 H   0  0  0  0  0  0  0  0  0  0  0  0
   -2.6797   -3.0765   -0.0618 H   0  0  0  0  0  0  0  0  0  0  0  0
   -3.2922   -3.6000    1.5268 H   0  0  0  0  0  0  0  0  0  0  0  0
   -0.5768   -3.3334    0.8057 H   0  0  0  0  0  0  0  0  0  0  0  0
   -4.2401   -1.3638    0.2680 H   0  0  0  0  0  0  0  0  0  0  0  0
   -4.5241   -0.8966    3.0282 H   0  0  0  0  0  0  0  0  0  0  0  0
   -3.7178    1.1045    1.9421 H   0  0  0  0  0  0  0  0  0  0  0  0
   -5.6478    0.7419    0.6464 H   0  0  0  0  0  0  0  0  0  0  0  0
   -2.7312    1.6510   -0.6468 H   0  0  0  0  0  0  0  0  0  0  0  0
   -1.2977    1.2825    1.7499 H   0  0  0  0  0  0  0  0  0  0  0  0
    1.5423   -1.4140   -1.5888 H   0  0  0  0  0  0  0  0  0  0  0  0
    0.9991   -1.9176    1.1296 H   0  0  0  0  0  0  0  0  0  0  0  0
    3.1028   -0.7212    0.9562 H   0  0  0  0  0  0  0  0  0  0  0  0
    3.4900   -2.7085   -0.2763 H   0  0  0  0  0  0  0  0  0  0  0  0
  1  2  1  0  0  0  0
  2  3  1  0  0  0  0
  3  4  1  0  0  0  0
  4  5  1  0  0  0  0
  5  6  1  0  0  0  0
  6  7  1  0  0  0  0
  5  8  1  0  0  0  0
  8  9  1  0  0  0  0
  9 10  1  0  0  0  0
 10 11  1  0  0  0  0
 11 12  1  0  0  0  0
 12 13  1  0  0  0  0
 13 14  1  0  0  0  0
 12 15  1  0  0  0  0
 15 16  1  0  0  0  0
 15 17  1  0  0  0  0
 17 18  1  0  0  0  0
 10 19  1  0  0  0  0
 17 19  1  0  0  0  0
 19 20  1  0  0  0  0
  8 21  1  0  0  0  0
 21 22  1  0  0  0  0
  3 23  1  0  0  0  0
 21 23  1  0  0  0  0
 23 24  1  0  0  0  0
  1 25  1  0  0  0  0
  1 26  1  0  0  0  0
  1 27  1  0  0  0  0
  3 28  1  0  0  0  0
  5 29  1  0  0  0  0
  6 30  1  0  0  0  0
  6 31  1  0  0  0  0
  7 32  1  0  0  0  0
  8 33  1  0  0  0  0
 10 34  1  0  0  0  0
 12 35  1  0  0  0  0
 13 36  1  0  0  0  0
 13 37  1  0  0  0  0
 14 38  1  0  0  0  0
 15 39  1  0  0  0  0
 16 40  1  0  0  0  0
 17 41  1  0  0  0  0
 18 42  1  0  0  0  0
 19 43  1  0  0  0  0
 20 44  1  0  0  0  0
 21 45  1  0  0  0  0
 22 46  1  0  0  0  0
 23 47  1  0  0  0  0
 24 48  1  0  0  0  0
M  END
