 xtb: 6.7.1 (edcfbbe)
          09222613203D

 48 49  0     0  0            999 V2000
    5.6584    0.7331   -0.0412 C   0  0  0  0  0  0  0  0  0  0  0  0
    4.4457    0.9731   -0.7313 O   0  0  0  0  0  0  0  0  0  0  0  0
    3.3360    1.0151    0.0843 C   0  0  0  0  0  0  0  0  0  0  0  0
    3.0697   -0.2864    0.5643 O   0  0  0  0  0  0  0  0  0  0  0  0
    1.9387   -0.3382    1.3949 C   0  0  0  0  0  0  0  0  0  0  0  0
    1.9115   -1.7022    2.1004 C   0  0  0  0  0  0  0  0  0  0  0  0
    1.2519   -1.6344    3.3350 O   0  0  0  0  0  0  0  0  0  0  0  0
    0.6541   -0.0578    0.5743 C   0  0  0  0  0  0  0  0  0  0  0  0
   -0.4275   -0.1206    1.5014 O   0  0  0  0  0  0  0  0  0  0  0  0
   -1.6236   -0.8437    1.3530 C   0  0  0  0  0  0  0  0  0  0  0  0
   -2.7309   -0.0028    1.1800 O   0  0  0  0  0  0  0  0  0  0  0  0
   -2.9546    0.5654   -0.1082 C   0  0  0  0  0  0  0  0  0  0  0  0
   -4.2011    1.4436    0.0675 C   0  0  0  0  0  0  0  0  0  0  0  0
   -3.9666    2.4854    0.9675 O   0  0  0  0  0  0  0  0  0  0  0  0
   -3.1561   -0.5454   -1.1468 C   0  0  0  0  0  0  0  0  0  0  0  0
   -3.2285   -0.0638   -2.4703 O   0  0  0  0  0  0  0  0  0  0  0  0
   -1.9532   -1.4916   -1.1076 C   0  0  0  0  0  0  0  0  0  0  0  0
   -2.1669   -2.6356   -1.9005 O   0  0  0  0  0  0  0  0  0  0  0  0
   -1.6993   -1.9899    0.3209 C   0  0  0  0  0  0  0  0  0  0  0  0
   -0.5587   -2.7992    0.3822 O   0  0  0  0  0  0  0  0  0  0  0  0
    0.7930    1.3341   -0.0687 C   0  0  0  0  0  0  0  0  0  0  0  0
   -0.2078    1.6346   -1.0191 O   0  0  0  0  0  0  0  0  0  0  0  0
    2.1598    1.5316   -0.7520 C   0  0  0  0  0  0  0  0  0  0  0  0
    2.3670    2.8932   -1.0076 O   0  0  0  0  0  0  0  0  0  0  0  0
    5.6355   -0.2367    0.4611 H   0  0  0  0  0  0  0  0  0  0  0  0
    5.8455    1.5216    0.6960 H   0  0  0  0  0  0  0  0  0  0  0  0
    6.4384    0.7434   -0.7985 H   0  0  0  0  0  0  0  0  0  0  0  0
    3.4924    1.6994    0.9451 H   0  0  0  0  0  0  0  0  0  0  0  0
    2.0125    0.4411    2.1736 H   0  0  0  0  0  0  0  0  0  0  0  0
    2.9415   -1.9971    2.3110 H   0  0  0  0  0  0  0  0  0  0  0  0
    1.4498   -2.4504    1.4465 H   0  0  0  0  0  0  0  0  0  0  0  0
    0.3858   -1.2401    3.1764 H   0  0  0  0  0  0  0  0  0  0  0  0
    0.5731   -0.8302   -0.1951 H   0  0  0  0  0  0  0  0  0  0  0  0
   -1.7989   -1.2776    2.3489 H   0  0  0  0  0  0  0  0  0  0  0  0
   -2.1069    1.1978   -0.3983 H   0  0  0  0  0  0  0  0  0  0  0  0
   -5.0307    0.8079    0.4134 H   0  0  0  0  0  0  0  0  0  0  0  0
   -4.4776    1.9159   -0.8788 H   0  0  0  0  0  0  0  0  0  0  0  0
   -3.5469    2.1009    1.7476 H   0  0  0  0  0  0  0  0  0  0  0  0
   -4.0634   -1.1186   -0.8935 H   0  0  0  0  0  0  0  0  0  0  0  0
   -3.9349    0.5863   -2.5389 H   0  0  0  0  0  0  0  0  0  0  0  0
   -1.0814   -0.9416   -1.4910 H   0  0  0  0  0  0  0  0  0  0  0  0
   -2.5075   -2.3373   -2.7526 H   0  0  0  0  0  0  0  0  0  0  0  0
   -2.5908   -2.5759    0.6037 H   0  0  0  0  0  0  0  0  0  0  0  0
   -0.6596   -3.4820   -0.2948 H   0  0  0  0  0  0  0  0  0  0  0  0
    0.6683    2.0857    0.7190 H   0  0  0  0  0  0  0  0  0  0  0  0
   -0.0839    1.0826   -1.8029 H   0  0  0  0  0  0  0  0  0  0  0  0
    2.1727    0.9547   -1.6943 H   0  0  0  0  0  0  0  0  0  0  0  0
    1.5556    3.2525   -1.3925 H   0  0  0  0  0  0  0  0  0  0  0  0
  1  2  1  0  0  0  0
  2  3  1  0  0  0  0
  3  4  1  0  0  0  0
  4  5  1  0  0  0  0
  5  6  1  0  0  0  0
  6  7  1  0  0  0  0
  5  8  1  0  0  0  0
  8  9  1  0  0  0  0
  9 10  1  0  0  0  0
 10 11  1  0  0  0  0
 11 12  1  0  0  0  0
 12 13  1  0  0  0  0
 13 14  1  0  0  0  0
 12 15  1  0  0  0  0
 15 16  1  0  0  0  0
 15 17  1  0  0  0  0
 17 18  1  0  0  0  0
 10 19  1  0  0  0  0
 17 19  1  0  0  0  0
 19 20  1  0  0  0  0
  8 21  1  0  0  0  0
 21 22  1  0  0  0  0
  3 23  1  0  0  0  0
 21 23  1  0  0  0  0
 23 24  1  0  0  0  0
  1 25  1  0  0  0  0
  1 26  1  0  0  0  0
  1 27  1  0  0  0  0
  3 28  1  0  0  0  0
  5 29  1  0  0  0  0
  6 30  1  0  0  0  0
  6 31  1  0  0  0  0
  7 32  1  0  0  0  0
  8 33  1  0  0  0  0
 10 34  1  0  0  0  0
 12 35  1  0  0  0  0
 13 36  1  0  0  0  0
 13 37  1  0  0  0  0
 14 38  1  0  0  0  0
 15 39  1  0  0  0  0
 16 40  1  0  0  0  0
 17 41  1  0  0  0  0
 18 42  1  0  0  0  0
 19 43  1  0  0  0  0
 20 44  1  0  0  0  0
 21 45  1  0  0  0  0
 22 46  1  0  0  0  0
 23 47  1  0  0  0  0
 24 48  1  0  0  0  0
M  END
