 xtb: 6.7.1 (edcfbbe)
          09222613223D

 48 49  0     0  0            999 V2000
    5.6248    0.9857    0.1956 C   0  0  0  0  0  0  0  0  0  0  0  0
    4.4509    1.2717   -0.5395 O   0  0  0  0  0  0  0  0  0  0  0  0
    3.2804    1.1035    0.1694 C   0  0  0  0  0  0  0  0  0  0  0  0
    3.0238   -0.2758    0.3107 O   0  0  0  0  0  0  0  0  0  0  0  0
    1.8896   -0.5586    1.1032 C   0  0  0  0  0  0  0  0  0  0  0  0
    1.9018   -2.0766    1.3093 C   0  0  0  0  0  0  0  0  0  0  0  0
    3.0850   -2.4807    1.9406 O   0  0  0  0  0  0  0  0  0  0  0  0
    0.5792   -0.0252    0.4755 C   0  0  0  0  0  0  0  0  0  0  0  0
   -0.3689   -0.0557    1.5373 O   0  0  0  0  0  0  0  0  0  0  0  0
   -1.6675   -0.5765    1.5291 C   0  0  0  0  0  0  0  0  0  0  0  0
   -2.6579    0.3604    1.1844 O   0  0  0  0  0  0  0  0  0  0  0  0
   -2.9523    0.6198   -0.1849 C   0  0  0  0  0  0  0  0  0  0  0  0
   -4.1087    1.6303   -0.1356 C   0  0  0  0  0  0  0  0  0  0  0  0
   -3.7201    2.8209    0.4815 O   0  0  0  0  0  0  0  0  0  0  0  0
   -3.3382   -0.6693   -0.9193 C   0  0  0  0  0  0  0  0  0  0  0  0
   -3.4617   -0.4903   -2.3134 O   0  0  0  0  0  0  0  0  0  0  0  0
   -2.2350   -1.7088   -0.7152 C   0  0  0  0  0  0  0  0  0  0  0  0
   -2.6118   -2.9694   -1.2180 O   0  0  0  0  0  0  0  0  0  0  0  0
   -1.9534   -1.9004    0.7813 C   0  0  0  0  0  0  0  0  0  0  0  0
   -0.9225   -2.8202    0.9882 O   0  0  0  0  0  0  0  0  0  0  0  0
    0.7538    1.4166   -0.0518 C   0  0  0  0  0  0  0  0  0  0  0  0
   -0.2024    1.7495   -1.0375 O   0  0  0  0  0  0  0  0  0  0  0  0
    2.1443    1.7432   -0.6292 C   0  0  0  0  0  0  0  0  0  0  0  0
    2.3325    3.1308   -0.6493 O   0  0  0  0  0  0  0  0  0  0  0  0
    5.6563   -0.0640    0.4996 H   0  0  0  0  0  0  0  0  0  0  0  0
    5.6909    1.6228    1.0842 H   0  0  0  0  0  0  0  0  0  0  0  0
    6.4542    1.2006   -0.4738 H   0  0  0  0  0  0  0  0  0  0  0  0
    3.3403    1.5759    1.1714 H   0  0  0  0  0  0  0  0  0  0  0  0
    1.9951   -0.0636    2.0824 H   0  0  0  0  0  0  0  0  0  0  0  0
    1.7986   -2.5644    0.3305 H   0  0  0  0  0  0  0  0  0  0  0  0
    1.0738   -2.3757    1.9488 H   0  0  0  0  0  0  0  0  0  0  0  0
    3.8176   -2.1140    1.4301 H   0  0  0  0  0  0  0  0  0  0  0  0
    0.2932   -0.6870   -0.3490 H   0  0  0  0  0  0  0  0  0  0  0  0
   -1.8431   -0.7470    2.5995 H   0  0  0  0  0  0  0  0  0  0  0  0
   -2.0926    1.0876   -0.6788 H   0  0  0  0  0  0  0  0  0  0  0  0
   -4.9506    1.1687    0.4034 H   0  0  0  0  0  0  0  0  0  0  0  0
   -4.4306    1.9005   -1.1449 H   0  0  0  0  0  0  0  0  0  0  0  0
   -3.2539    2.5807    1.2925 H   0  0  0  0  0  0  0  0  0  0  0  0
   -4.2760   -1.0654   -0.4965 H   0  0  0  0  0  0  0  0  0  0  0  0
   -4.1241    0.1845   -2.4934 H   0  0  0  0  0  0  0  0  0  0  0  0
   -1.3375   -1.3611   -1.2480 H   0  0  0  0  0  0  0  0  0  0  0  0
   -2.9631   -2.8319   -2.1061 H   0  0  0  0  0  0  0  0  0  0  0  0
   -2.8933   -2.2837    1.2174 H   0  0  0  0  0  0  0  0  0  0  0  0
   -1.1282   -3.5984    0.4526 H   0  0  0  0  0  0  0  0  0  0  0  0
    0.5542    2.0950    0.7854 H   0  0  0  0  0  0  0  0  0  0  0  0
   -0.0102    1.2528   -1.8443 H   0  0  0  0  0  0  0  0  0  0  0  0
    2.2170    1.3279   -1.6505 H   0  0  0  0  0  0  0  0  0  0  0  0
    1.5462    3.5343   -1.0413 H   0  0  0  0  0  0  0  0  0  0  0  0
  1  2  1  0  0  0  0
  2  3  1  0  0  0  0
  3  4  1  0  0  0  0
  4  5  1  0  0  0  0
  5  6  1  0  0  0  0
  6  7  1  0  0  0  0
  5  8  1  0  0  0  0
  8  9  1  0  0  0  0
  9 10  1  0  0  0  0
 10 11  1  0  0  0  0
 11 12  1  0  0  0  0
 12 13  1  0  0  0  0
 13 14  1  0  0  0  0
 12 15  1  0  0  0  0
 15 16  1  0  0  0  0
 15 17  1  0  0  0  0
 17 18  1  0  0  0  0
 10 19  1  0  0  0  0
 17 19  1  0  0  0  0
 19 20  1  0  0  0  0
  8 21  1  0  0  0  0
 21 22  1  0  0  0  0
  3 23  1  0  0  0  0
 21 23  1  0  0  0  0
 23 24  1  0  0  0  0
  1 25  1  0  0  0  0
  1 26  1  0  0  0  0
  1 27  1  0  0  0  0
  3 28  1  0  0  0  0
  5 29  1  0  0  0  0
  6 30  1  0  0  0  0
  6 31  1  0  0  0  0
  7 32  1  0  0  0  0
  8 33  1  0  0  0  0
 10 34  1  0  0  0  0
 12 35  1  0  0  0  0
 13 36  1  0  0  0  0
 13 37  1  0  0  0  0
 14 38  1  0  0  0  0
 15 39  1  0  0  0  0
 16 40  1  0  0  0  0
 17 41  1  0  0  0  0
 18 42  1  0  0  0  0
 19 43  1  0  0  0  0
 20 44  1  0  0  0  0
 21 45  1  0  0  0  0
 22 46  1  0  0  0  0
 23 47  1  0  0  0  0
 24 48  1  0  0  0  0
M  END
