 xtb: 6.7.1 (edcfbbe)
          09222612583D

 48 49  0     0  0            999 V2000
    5.6265   -0.2380   -0.7510 C   0  0  0  0  0  0  0  0  0  0  0  0
    4.8391    0.8961   -0.4074 O   0  0  0  0  0  0  0  0  0  0  0  0
    3.5476    0.6099   -0.0054 C   0  0  0  0  0  0  0  0  0  0  0  0
    2.8097    0.0856   -1.0865 O   0  0  0  0  0  0  0  0  0  0  0  0
    1.4849   -0.2526   -0.7343 C   0  0  0  0  0  0  0  0  0  0  0  0
    0.8161   -0.8392   -1.9863 C   0  0  0  0  0  0  0  0  0  0  0  0
    1.1831   -2.1707   -2.2239 O   0  0  0  0  0  0  0  0  0  0  0  0
    0.6833    0.9532   -0.1993 C   0  0  0  0  0  0  0  0  0  0  0  0
   -0.5187    0.4413    0.3506 O   0  0  0  0  0  0  0  0  0  0  0  0
   -1.7387    0.8720   -0.1792 C   0  0  0  0  0  0  0  0  0  0  0  0
   -2.3501   -0.1657   -0.9094 O   0  0  0  0  0  0  0  0  0  0  0  0
   -2.5947   -1.3359   -0.1393 C   0  0  0  0  0  0  0  0  0  0  0  0
   -3.1891   -2.3837   -1.0935 C   0  0  0  0  0  0  0  0  0  0  0  0
   -3.3497   -3.6333   -0.4688 O   0  0  0  0  0  0  0  0  0  0  0  0
   -3.5430   -1.0342    1.0318 C   0  0  0  0  0  0  0  0  0  0  0  0
   -3.7094   -2.1429    1.8795 O   0  0  0  0  0  0  0  0  0  0  0  0
   -2.9616    0.1135    1.8652 C   0  0  0  0  0  0  0  0  0  0  0  0
   -3.8493    0.5288    2.8752 O   0  0  0  0  0  0  0  0  0  0  0  0
   -2.6924    1.3117    0.9504 C   0  0  0  0  0  0  0  0  0  0  0  0
   -2.1446    2.3944    1.6404 O   0  0  0  0  0  0  0  0  0  0  0  0
    1.4560    1.7293    0.8762 C   0  0  0  0  0  0  0  0  0  0  0  0
    0.8288    2.9724    1.0362 O   0  0  0  0  0  0  0  0  0  0  0  0
    2.9248    1.9278    0.4737 C   0  0  0  0  0  0  0  0  0  0  0  0
    3.6049    2.4361    1.5908 O   0  0  0  0  0  0  0  0  0  0  0  0
    5.2301   -0.7275   -1.6415 H   0  0  0  0  0  0  0  0  0  0  0  0
    5.6553   -0.9492    0.0799 H   0  0  0  0  0  0  0  0  0  0  0  0
    6.6227    0.1488   -0.9490 H   0  0  0  0  0  0  0  0  0  0  0  0
    3.5441   -0.1285    0.8274 H   0  0  0  0  0  0  0  0  0  0  0  0
    1.4975   -1.0150    0.0628 H   0  0  0  0  0  0  0  0  0  0  0  0
    1.0718   -0.1976   -2.8388 H   0  0  0  0  0  0  0  0  0  0  0  0
   -0.2667   -0.8375   -1.8499 H   0  0  0  0  0  0  0  0  0  0  0  0
    2.1329   -2.2047   -2.3963 H   0  0  0  0  0  0  0  0  0  0  0  0
    0.4676    1.6482   -1.0205 H   0  0  0  0  0  0  0  0  0  0  0  0
   -1.6005    1.6994   -0.8846 H   0  0  0  0  0  0  0  0  0  0  0  0
   -1.6447   -1.7052    0.2768 H   0  0  0  0  0  0  0  0  0  0  0  0
   -2.5520   -2.4506   -1.9808 H   0  0  0  0  0  0  0  0  0  0  0  0
   -4.1844   -2.0596   -1.4065 H   0  0  0  0  0  0  0  0  0  0  0  0
   -2.4885   -4.0638   -0.3841 H   0  0  0  0  0  0  0  0  0  0  0  0
   -4.5168   -0.7088    0.6268 H   0  0  0  0  0  0  0  0  0  0  0  0
   -3.9041   -2.9191    1.3261 H   0  0  0  0  0  0  0  0  0  0  0  0
   -2.0082   -0.2156    2.3068 H   0  0  0  0  0  0  0  0  0  0  0  0
   -4.1469   -0.2601    3.3486 H   0  0  0  0  0  0  0  0  0  0  0  0
   -3.6454    1.6025    0.4740 H   0  0  0  0  0  0  0  0  0  0  0  0
   -2.6349    2.4869    2.4708 H   0  0  0  0  0  0  0  0  0  0  0  0
    1.4242    1.1515    1.8122 H   0  0  0  0  0  0  0  0  0  0  0  0
    1.2782    3.4532    1.7446 H   0  0  0  0  0  0  0  0  0  0  0  0
    2.9660    2.6359   -0.3684 H   0  0  0  0  0  0  0  0  0  0  0  0
    4.5390    2.5404    1.3615 H   0  0  0  0  0  0  0  0  0  0  0  0
  1  2  1  0  0  0  0
  2  3  1  0  0  0  0
  3  4  1  0  0  0  0
  4  5  1  0  0  0  0
  5  6  1  0  0  0  0
  6  7  1  0  0  0  0
  5  8  1  0  0  0  0
  8  9  1  0  0  0  0
  9 10  1  0  0  0  0
 10 11  1  0  0  0  0
 11 12  1  0  0  0  0
 12 13  1  0  0  0  0
 13 14  1  0  0  0  0
 12 15  1  0  0  0  0
 15 16  1  0  0  0  0
 15 17  1  0  0  0  0
 17 18  1  0  0  0  0
 10 19  1  0  0  0  0
 17 19  1  0  0  0  0
 19 20  1  0  0  0  0
  8 21  1  0  0  0  0
 21 22  1  0  0  0  0
  3 23  1  0  0  0  0
 21 23  1  0  0  0  0
 23 24  1  0  0  0  0
  1 25  1  0  0  0  0
  1 26  1  0  0  0  0
  1 27  1  0  0  0  0
  3 28  1  0  0  0  0
  5 29  1  0  0  0  0
  6 30  1  0  0  0  0
  6 31  1  0  0  0  0
  7 32  1  0  0  0  0
  8 33  1  0  0  0  0
 10 34  1  0  0  0  0
 12 35  1  0  0  0  0
 13 36  1  0  0  0  0
 13 37  1  0  0  0  0
 14 38  1  0  0  0  0
 15 39  1  0  0  0  0
 16 40  1  0  0  0  0
 17 41  1  0  0  0  0
 18 42  1  0  0  0  0
 19 43  1  0  0  0  0
 20 44  1  0  0  0  0
 21 45  1  0  0  0  0
 22 46  1  0  0  0  0
 23 47  1  0  0  0  0
 24 48  1  0  0  0  0
M  END
