 xtb: 6.7.1 (edcfbbe)
          09212615513D

 48 49  0     0  0            999 V2000
    3.8377   -0.5960    0.9498 C   0  0  0  0  0  0  0  0  0  0  0  0
    3.2203   -0.8055   -0.3175 O   0  0  0  0  0  0  0  0  0  0  0  0
    3.1991    0.3294   -1.1427 C   0  0  0  0  0  0  0  0  0  0  0  0
    2.4699    1.3890   -0.5944 O   0  0  0  0  0  0  0  0  0  0  0  0
    1.0697    1.4313   -0.8883 C   0  0  0  0  0  0  0  0  0  0  0  0
    0.4341    2.2205    0.2595 C   0  0  0  0  0  0  0  0  0  0  0  0
    0.8301    3.5666    0.2485 O   0  0  0  0  0  0  0  0  0  0  0  0
    0.5127    0.0126   -1.0509 C   0  0  0  0  0  0  0  0  0  0  0  0
   -0.8852    0.0347   -1.2883 O   0  0  0  0  0  0  0  0  0  0  0  0
   -1.7229   -0.8131   -0.4993 C   0  0  0  0  0  0  0  0  0  0  0  0
   -1.1696   -1.2159    0.7054 O   0  0  0  0  0  0  0  0  0  0  0  0
   -1.5181   -0.3864    1.8200 C   0  0  0  0  0  0  0  0  0  0  0  0
   -0.6618   -0.8300    3.0099 C   0  0  0  0  0  0  0  0  0  0  0  0
    0.7149   -0.6917    2.7518 O   0  0  0  0  0  0  0  0  0  0  0  0
   -3.0253   -0.4855    2.1303 C   0  0  0  0  0  0  0  0  0  0  0  0
   -3.4788    0.6533    2.8100 O   0  0  0  0  0  0  0  0  0  0  0  0
   -3.8293   -0.7305    0.8293 C   0  0  0  0  0  0  0  0  0  0  0  0
   -4.0115   -2.0908    0.5384 O   0  0  0  0  0  0  0  0  0  0  0  0
   -3.0907   -0.1084   -0.3621 C   0  0  0  0  0  0  0  0  0  0  0  0
   -2.9788    1.2730   -0.1416 O   0  0  0  0  0  0  0  0  0  0  0  0
    1.2065   -0.6897   -2.2437 C   0  0  0  0  0  0  0  0  0  0  0  0
    1.2345   -2.0818   -2.0865 O   0  0  0  0  0  0  0  0  0  0  0  0
    2.6186   -0.1205   -2.4919 C   0  0  0  0  0  0  0  0  0  0  0  0
    2.5270    0.9414   -3.4015 O   0  0  0  0  0  0  0  0  0  0  0  0
    3.2253    0.0540    1.5775 H   0  0  0  0  0  0  0  0  0  0  0  0
    4.8274   -0.1527    0.8180 H   0  0  0  0  0  0  0  0  0  0  0  0
    3.9264   -1.5791    1.4017 H   0  0  0  0  0  0  0  0  0  0  0  0
    4.2240    0.7255   -1.2491 H   0  0  0  0  0  0  0  0  0  0  0  0
    0.9201    1.9784   -1.8299 H   0  0  0  0  0  0  0  0  0  0  0  0
    0.7119    1.7435    1.2099 H   0  0  0  0  0  0  0  0  0  0  0  0
   -0.6502    2.2236    0.1447 H   0  0  0  0  0  0  0  0  0  0  0  0
    1.7970    3.6016    0.2826 H   0  0  0  0  0  0  0  0  0  0  0  0
    0.7195   -0.5549   -0.1364 H   0  0  0  0  0  0  0  0  0  0  0  0
   -1.8663   -1.7521   -1.0603 H   0  0  0  0  0  0  0  0  0  0  0  0
   -1.2829    0.6569    1.5819 H   0  0  0  0  0  0  0  0  0  0  0  0
   -0.9054   -1.8682    3.2601 H   0  0  0  0  0  0  0  0  0  0  0  0
   -0.8886   -0.1863    3.8612 H   0  0  0  0  0  0  0  0  0  0  0  0
    0.9559   -1.3516    2.0882 H   0  0  0  0  0  0  0  0  0  0  0  0
   -3.2008   -1.3241    2.8125 H   0  0  0  0  0  0  0  0  0  0  0  0
   -3.4013    1.4228    2.2245 H   0  0  0  0  0  0  0  0  0  0  0  0
   -4.7952   -0.2162    0.9369 H   0  0  0  0  0  0  0  0  0  0  0  0
   -4.5984   -2.4905    1.1976 H   0  0  0  0  0  0  0  0  0  0  0  0
   -3.6608   -0.3130   -1.2758 H   0  0  0  0  0  0  0  0  0  0  0  0
   -2.6356    1.6829   -0.9485 H   0  0  0  0  0  0  0  0  0  0  0  0
    0.6037   -0.4958   -3.1376 H   0  0  0  0  0  0  0  0  0  0  0  0
    1.8225   -2.2988   -1.3462 H   0  0  0  0  0  0  0  0  0  0  0  0
    3.2389   -0.9354   -2.8888 H   0  0  0  0  0  0  0  0  0  0  0  0
    3.4097    1.2231   -3.6852 H   0  0  0  0  0  0  0  0  0  0  0  0
  1  2  1  0  0  0  0
  2  3  1  0  0  0  0
  3  4  1  0  0  0  0
  4  5  1  0  0  0  0
  5  6  1  0  0  0  0
  6  7  1  0  0  0  0
  5  8  1  0  0  0  0
  8  9  1  0  0  0  0
  9 10  1  0  0  0  0
 10 11  1  0  0  0  0
 11 12  1  0  0  0  0
 12 13  1  0  0  0  0
 13 14  1  0  0  0  0
 12 15  1  0  0  0  0
 15 16  1  0  0  0  0
 15 17  1  0  0  0  0
 17 18  1  0  0  0  0
 10 19  1  0  0  0  0
 17 19  1  0  0  0  0
 19 20  1  0  0  0  0
  8 21  1  0  0  0  0
 21 22  1  0  0  0  0
  3 23  1  0  0  0  0
 21 23  1  0  0  0  0
 23 24  1  0  0  0  0
  1 25  1  0  0  0  0
  1 26  1  0  0  0  0
  1 27  1  0  0  0  0
  3 28  1  0  0  0  0
  5 29  1  0  0  0  0
  6 30  1  0  0  0  0
  6 31  1  0  0  0  0
  7 32  1  0  0  0  0
  8 33  1  0  0  0  0
 10 34  1  0  0  0  0
 12 35  1  0  0  0  0
 13 36  1  0  0  0  0
 13 37  1  0  0  0  0
 14 38  1  0  0  0  0
 15 39  1  0  0  0  0
 16 40  1  0  0  0  0
 17 41  1  0  0  0  0
 18 42  1  0  0  0  0
 19 43  1  0  0  0  0
 20 44  1  0  0  0  0
 21 45  1  0  0  0  0
 22 46  1  0  0  0  0
 23 47  1  0  0  0  0
 24 48  1  0  0  0  0
M  END
