 xtb: 6.7.1 (edcfbbe)
          09212615513D

 48 49  0     0  0            999 V2000
    5.6074   -1.1502    0.1988 C   0  0  0  0  0  0  0  0  0  0  0  0
    4.9182   -0.0080    0.6986 O   0  0  0  0  0  0  0  0  0  0  0  0
    3.5620   -0.1862    0.8844 C   0  0  0  0  0  0  0  0  0  0  0  0
    2.9381   -0.2581   -0.3817 O   0  0  0  0  0  0  0  0  0  0  0  0
    1.5378   -0.4479   -0.3345 C   0  0  0  0  0  0  0  0  0  0  0  0
    1.0610   -0.5732   -1.7932 C   0  0  0  0  0  0  0  0  0  0  0  0
    0.9631   -1.9040   -2.2212 O   0  0  0  0  0  0  0  0  0  0  0  0
    0.8272    0.7009    0.4085 C   0  0  0  0  0  0  0  0  0  0  0  0
   -0.5164    0.2973    0.6545 O   0  0  0  0  0  0  0  0  0  0  0  0
   -1.5463    1.1783    0.3075 C   0  0  0  0  0  0  0  0  0  0  0  0
   -1.9979    0.9838   -1.0056 O   0  0  0  0  0  0  0  0  0  0  0  0
   -2.5792   -0.2983   -1.2635 C   0  0  0  0  0  0  0  0  0  0  0  0
   -3.0993   -0.2554   -2.7079 C   0  0  0  0  0  0  0  0  0  0  0  0
   -2.0834   -0.0118   -3.6431 O   0  0  0  0  0  0  0  0  0  0  0  0
   -3.7170   -0.6268   -0.2867 C   0  0  0  0  0  0  0  0  0  0  0  0
   -4.2181   -1.9241   -0.4787 O   0  0  0  0  0  0  0  0  0  0  0  0
   -3.2484   -0.4241    1.1622 C   0  0  0  0  0  0  0  0  0  0  0  0
   -4.3105   -0.5817    2.0723 O   0  0  0  0  0  0  0  0  0  0  0  0
   -2.7002    0.9973    1.3080 C   0  0  0  0  0  0  0  0  0  0  0  0
   -2.2287    1.2685    2.5952 O   0  0  0  0  0  0  0  0  0  0  0  0
    1.5003    0.9915    1.7632 C   0  0  0  0  0  0  0  0  0  0  0  0
    1.0385    2.1818    2.3493 O   0  0  0  0  0  0  0  0  0  0  0  0
    3.0354    1.0145    1.6763 C   0  0  0  0  0  0  0  0  0  0  0  0
    3.5991    0.9680    2.9591 O   0  0  0  0  0  0  0  0  0  0  0  0
    5.2651   -1.3934   -0.8081 H   0  0  0  0  0  0  0  0  0  0  0  0
    5.4552   -2.0060    0.8622 H   0  0  0  0  0  0  0  0  0  0  0  0
    6.6560   -0.8685    0.1831 H   0  0  0  0  0  0  0  0  0  0  0  0
    3.3540   -1.1164    1.4526 H   0  0  0  0  0  0  0  0  0  0  0  0
    1.3031   -1.3783    0.2070 H   0  0  0  0  0  0  0  0  0  0  0  0
    1.7504    0.0027   -2.4196 H   0  0  0  0  0  0  0  0  0  0  0  0
    0.0607   -0.1533   -1.8906 H   0  0  0  0  0  0  0  0  0  0  0  0
    1.8487   -2.2766   -2.3318 H   0  0  0  0  0  0  0  0  0  0  0  0
    0.8471    1.6022   -0.2172 H   0  0  0  0  0  0  0  0  0  0  0  0
   -1.2024    2.2191    0.3399 H   0  0  0  0  0  0  0  0  0  0  0  0
   -1.7996   -1.0690   -1.1727 H   0  0  0  0  0  0  0  0  0  0  0  0
   -3.8795    0.5126   -2.7724 H   0  0  0  0  0  0  0  0  0  0  0  0
   -3.5295   -1.2258   -2.9594 H   0  0  0  0  0  0  0  0  0  0  0  0
   -1.7345    0.8771   -3.4891 H   0  0  0  0  0  0  0  0  0  0  0  0
   -4.5653    0.0430   -0.4713 H   0  0  0  0  0  0  0  0  0  0  0  0
   -3.4954   -2.5677   -0.4265 H   0  0  0  0  0  0  0  0  0  0  0  0
   -2.4376   -1.1323    1.3957 H   0  0  0  0  0  0  0  0  0  0  0  0
   -4.8325   -1.3549    1.8076 H   0  0  0  0  0  0  0  0  0  0  0  0
   -3.4967    1.7082    1.0328 H   0  0  0  0  0  0  0  0  0  0  0  0
   -2.8987    0.9671    3.2296 H   0  0  0  0  0  0  0  0  0  0  0  0
    1.1980    0.1990    2.4571 H   0  0  0  0  0  0  0  0  0  0  0  0
    1.2761    2.9391    1.7931 H   0  0  0  0  0  0  0  0  0  0  0  0
    3.3679    1.9190    1.1412 H   0  0  0  0  0  0  0  0  0  0  0  0
    3.1464    1.6208    3.5185 H   0  0  0  0  0  0  0  0  0  0  0  0
  1  2  1  0  0  0  0
  2  3  1  0  0  0  0
  3  4  1  0  0  0  0
  4  5  1  0  0  0  0
  5  6  1  0  0  0  0
  6  7  1  0  0  0  0
  5  8  1  0  0  0  0
  8  9  1  0  0  0  0
  9 10  1  0  0  0  0
 10 11  1  0  0  0  0
 11 12  1  0  0  0  0
 12 13  1  0  0  0  0
 13 14  1  0  0  0  0
 12 15  1  0  0  0  0
 15 16  1  0  0  0  0
 15 17  1  0  0  0  0
 17 18  1  0  0  0  0
 10 19  1  0  0  0  0
 17 19  1  0  0  0  0
 19 20  1  0  0  0  0
  8 21  1  0  0  0  0
 21 22  1  0  0  0  0
  3 23  1  0  0  0  0
 21 23  1  0  0  0  0
 23 24  1  0  0  0  0
  1 25  1  0  0  0  0
  1 26  1  0  0  0  0
  1 27  1  0  0  0  0
  3 28  1  0  0  0  0
  5 29  1  0  0  0  0
  6 30  1  0  0  0  0
  6 31  1  0  0  0  0
  7 32  1  0  0  0  0
  8 33  1  0  0  0  0
 10 34  1  0  0  0  0
 12 35  1  0  0  0  0
 13 36  1  0  0  0  0
 13 37  1  0  0  0  0
 14 38  1  0  0  0  0
 15 39  1  0  0  0  0
 16 40  1  0  0  0  0
 17 41  1  0  0  0  0
 18 42  1  0  0  0  0
 19 43  1  0  0  0  0
 20 44  1  0  0  0  0
 21 45  1  0  0  0  0
 22 46  1  0  0  0  0
 23 47  1  0  0  0  0
 24 48  1  0  0  0  0
M  END
