 xtb: 6.7.1 (edcfbbe)
          09222613273D

 48 49  0     0  0            999 V2000
    5.5375   -0.3823    0.1408 C   0  0  0  0  0  0  0  0  0  0  0  0
    4.6467    0.6612    0.4828 O   0  0  0  0  0  0  0  0  0  0  0  0
    3.4643    0.2443    1.0543 C   0  0  0  0  0  0  0  0  0  0  0  0
    2.6614   -0.3361    0.0431 O   0  0  0  0  0  0  0  0  0  0  0  0
    1.3873   -0.7767    0.4743 C   0  0  0  0  0  0  0  0  0  0  0  0
    0.8195   -1.5552   -0.7126 C   0  0  0  0  0  0  0  0  0  0  0  0
    1.6163   -2.6663   -1.0063 O   0  0  0  0  0  0  0  0  0  0  0  0
    0.5568    0.4248    0.9640 C   0  0  0  0  0  0  0  0  0  0  0  0
   -0.7074    0.0177    1.4492 O   0  0  0  0  0  0  0  0  0  0  0  0
   -1.8568    0.7138    1.0189 C   0  0  0  0  0  0  0  0  0  0  0  0
   -1.8080    1.2561   -0.2671 O   0  0  0  0  0  0  0  0  0  0  0  0
   -2.0629    0.3991   -1.3743 C   0  0  0  0  0  0  0  0  0  0  0  0
   -2.2280    1.3180   -2.5968 C   0  0  0  0  0  0  0  0  0  0  0  0
   -2.3489    0.5882   -3.7938 O   0  0  0  0  0  0  0  0  0  0  0  0
   -3.3027   -0.4878   -1.1823 C   0  0  0  0  0  0  0  0  0  0  0  0
   -3.4064   -1.4520   -2.1999 O   0  0  0  0  0  0  0  0  0  0  0  0
   -3.1976   -1.2228    0.1563 C   0  0  0  0  0  0  0  0  0  0  0  0
   -4.3367   -2.0075    0.4057 O   0  0  0  0  0  0  0  0  0  0  0  0
   -3.0889   -0.1735    1.2623 C   0  0  0  0  0  0  0  0  0  0  0  0
   -3.0138   -0.7427    2.5317 O   0  0  0  0  0  0  0  0  0  0  0  0
    1.3284    1.1402    2.0841 C   0  0  0  0  0  0  0  0  0  0  0  0
    0.6884    2.3169    2.5158 O   0  0  0  0  0  0  0  0  0  0  0  0
    2.7714    1.4681    1.6632 C   0  0  0  0  0  0  0  0  0  0  0  0
    3.5087    1.8913    2.7758 O   0  0  0  0  0  0  0  0  0  0  0  0
    5.1158   -1.0252   -0.6371 H   0  0  0  0  0  0  0  0  0  0  0  0
    5.7825   -0.9885    1.0197 H   0  0  0  0  0  0  0  0  0  0  0  0
    6.4355    0.1044   -0.2320 H   0  0  0  0  0  0  0  0  0  0  0  0
    3.6409   -0.5035    1.8550 H   0  0  0  0  0  0  0  0  0  0  0  0
    1.5021   -1.4726    1.3222 H   0  0  0  0  0  0  0  0  0  0  0  0
    0.7783   -0.8807   -1.5813 H   0  0  0  0  0  0  0  0  0  0  0  0
   -0.1726   -1.9374   -0.4716 H   0  0  0  0  0  0  0  0  0  0  0  0
    2.5292   -2.3558   -1.0570 H   0  0  0  0  0  0  0  0  0  0  0  0
    0.4257    1.1240    0.1230 H   0  0  0  0  0  0  0  0  0  0  0  0
   -1.9567    1.6104    1.6592 H   0  0  0  0  0  0  0  0  0  0  0  0
   -1.2083   -0.2700   -1.5433 H   0  0  0  0  0  0  0  0  0  0  0  0
   -1.3839    2.0158   -2.6323 H   0  0  0  0  0  0  0  0  0  0  0  0
   -3.1484    1.8969   -2.4966 H   0  0  0  0  0  0  0  0  0  0  0  0
   -1.5030    0.1740   -4.0028 H   0  0  0  0  0  0  0  0  0  0  0  0
   -4.2058    0.1453   -1.1608 H   0  0  0  0  0  0  0  0  0  0  0  0
   -3.3794   -0.9892   -3.0520 H   0  0  0  0  0  0  0  0  0  0  0  0
   -2.2965   -1.8551    0.1592 H   0  0  0  0  0  0  0  0  0  0  0  0
   -4.5126   -2.5148   -0.3966 H   0  0  0  0  0  0  0  0  0  0  0  0
   -3.9786    0.4783    1.1900 H   0  0  0  0  0  0  0  0  0  0  0  0
   -3.6268   -1.4907    2.5387 H   0  0  0  0  0  0  0  0  0  0  0  0
    1.3464    0.4889    2.9650 H   0  0  0  0  0  0  0  0  0  0  0  0
    0.4882    2.8698    1.7503 H   0  0  0  0  0  0  0  0  0  0  0  0
    2.7579    2.2533    0.8874 H   0  0  0  0  0  0  0  0  0  0  0  0
    2.9417    2.4855    3.2877 H   0  0  0  0  0  0  0  0  0  0  0  0
  1  2  1  0  0  0  0
  2  3  1  0  0  0  0
  3  4  1  0  0  0  0
  4  5  1  0  0  0  0
  5  6  1  0  0  0  0
  6  7  1  0  0  0  0
  5  8  1  0  0  0  0
  8  9  1  0  0  0  0
  9 10  1  0  0  0  0
 10 11  1  0  0  0  0
 11 12  1  0  0  0  0
 12 13  1  0  0  0  0
 13 14  1  0  0  0  0
 12 15  1  0  0  0  0
 15 16  1  0  0  0  0
 15 17  1  0  0  0  0
 17 18  1  0  0  0  0
 10 19  1  0  0  0  0
 17 19  1  0  0  0  0
 19 20  1  0  0  0  0
  8 21  1  0  0  0  0
 21 22  1  0  0  0  0
  3 23  1  0  0  0  0
 21 23  1  0  0  0  0
 23 24  1  0  0  0  0
  1 25  1  0  0  0  0
  1 26  1  0  0  0  0
  1 27  1  0  0  0  0
  3 28  1  0  0  0  0
  5 29  1  0  0  0  0
  6 30  1  0  0  0  0
  6 31  1  0  0  0  0
  7 32  1  0  0  0  0
  8 33  1  0  0  0  0
 10 34  1  0  0  0  0
 12 35  1  0  0  0  0
 13 36  1  0  0  0  0
 13 37  1  0  0  0  0
 14 38  1  0  0  0  0
 15 39  1  0  0  0  0
 16 40  1  0  0  0  0
 17 41  1  0  0  0  0
 18 42  1  0  0  0  0
 19 43  1  0  0  0  0
 20 44  1  0  0  0  0
 21 45  1  0  0  0  0
 22 46  1  0  0  0  0
 23 47  1  0  0  0  0
 24 48  1  0  0  0  0
M  END
