 xtb: 6.7.1 (edcfbbe)
          09222613043D

 48 49  0     0  0            999 V2000
    1.8702    4.4600   -0.0108 C   0  0  0  0  0  0  0  0  0  0  0  0
    1.9746    3.2733   -0.7867 O   0  0  0  0  0  0  0  0  0  0  0  0
    1.5421    2.1254   -0.1407 C   0  0  0  0  0  0  0  0  0  0  0  0
    2.4353    1.7841    0.8949 O   0  0  0  0  0  0  0  0  0  0  0  0
    1.9226    0.7693    1.7432 C   0  0  0  0  0  0  0  0  0  0  0  0
    3.1298    0.0970    2.4127 C   0  0  0  0  0  0  0  0  0  0  0  0
    3.8991    1.0141    3.1451 O   0  0  0  0  0  0  0  0  0  0  0  0
    1.0350   -0.2560    1.0031 C   0  0  0  0  0  0  0  0  0  0  0  0
   -0.3075    0.2085    1.0594 O   0  0  0  0  0  0  0  0  0  0  0  0
   -1.3958   -0.5830    1.4921 C   0  0  0  0  0  0  0  0  0  0  0  0
   -2.5223   -0.1270    0.8035 O   0  0  0  0  0  0  0  0  0  0  0  0
   -2.5094   -0.4415   -0.5866 C   0  0  0  0  0  0  0  0  0  0  0  0
   -3.7481    0.2298   -1.2004 C   0  0  0  0  0  0  0  0  0  0  0  0
   -3.8115    0.0573   -2.5945 O   0  0  0  0  0  0  0  0  0  0  0  0
   -2.5505   -1.9658   -0.7911 C   0  0  0  0  0  0  0  0  0  0  0  0
   -2.4387   -2.3280   -2.1442 O   0  0  0  0  0  0  0  0  0  0  0  0
   -1.3896   -2.6296   -0.0404 C   0  0  0  0  0  0  0  0  0  0  0  0
   -1.5449   -4.0279    0.0232 O   0  0  0  0  0  0  0  0  0  0  0  0
   -1.3461   -2.1221    1.4034 C   0  0  0  0  0  0  0  0  0  0  0  0
   -0.2619   -2.6459    2.1219 O   0  0  0  0  0  0  0  0  0  0  0  0
    1.4917   -0.3802   -0.4659 C   0  0  0  0  0  0  0  0  0  0  0  0
    2.7366   -1.0222   -0.4551 O   0  0  0  0  0  0  0  0  0  0  0  0
    1.5248    0.9908   -1.1738 C   0  0  0  0  0  0  0  0  0  0  0  0
    0.4157    1.0823   -2.0298 O   0  0  0  0  0  0  0  0  0  0  0  0
    2.4952    4.3974    0.8815 H   0  0  0  0  0  0  0  0  0  0  0  0
    0.8302    4.6320    0.2847 H   0  0  0  0  0  0  0  0  0  0  0  0
    2.2164    5.2635   -0.6555 H   0  0  0  0  0  0  0  0  0  0  0  0
    0.5262    2.2635    0.2805 H   0  0  0  0  0  0  0  0  0  0  0  0
    1.2958    1.2460    2.5159 H   0  0  0  0  0  0  0  0  0  0  0  0
    3.7298   -0.3912    1.6360 H   0  0  0  0  0  0  0  0  0  0  0  0
    2.7781   -0.6515    3.1248 H   0  0  0  0  0  0  0  0  0  0  0  0
    4.1706    1.7173    2.5405 H   0  0  0  0  0  0  0  0  0  0  0  0
    1.1388   -1.2277    1.4866 H   0  0  0  0  0  0  0  0  0  0  0  0
   -1.5913   -0.3286    2.5485 H   0  0  0  0  0  0  0  0  0  0  0  0
   -1.5963   -0.0397   -1.0524 H   0  0  0  0  0  0  0  0  0  0  0  0
   -3.7471    1.2870   -0.9182 H   0  0  0  0  0  0  0  0  0  0  0  0
   -4.6470   -0.2354   -0.7887 H   0  0  0  0  0  0  0  0  0  0  0  0
   -3.1463    0.6152   -3.0188 H   0  0  0  0  0  0  0  0  0  0  0  0
   -3.4942   -2.3491   -0.3652 H   0  0  0  0  0  0  0  0  0  0  0  0
   -3.0700   -1.7887   -2.6521 H   0  0  0  0  0  0  0  0  0  0  0  0
   -0.4513   -2.3880   -0.5579 H   0  0  0  0  0  0  0  0  0  0  0  0
   -1.7046   -4.3525   -0.8733 H   0  0  0  0  0  0  0  0  0  0  0  0
   -2.2906   -2.4490    1.8743 H   0  0  0  0  0  0  0  0  0  0  0  0
   -0.2724   -3.6079    2.0035 H   0  0  0  0  0  0  0  0  0  0  0  0
    0.7499   -0.9783   -1.0151 H   0  0  0  0  0  0  0  0  0  0  0  0
    3.0172   -1.2096   -1.3615 H   0  0  0  0  0  0  0  0  0  0  0  0
    2.4639    1.0709   -1.7436 H   0  0  0  0  0  0  0  0  0  0  0  0
    0.4479    1.9415   -2.4732 H   0  0  0  0  0  0  0  0  0  0  0  0
  1  2  1  0  0  0  0
  2  3  1  0  0  0  0
  3  4  1  0  0  0  0
  4  5  1  0  0  0  0
  5  6  1  0  0  0  0
  6  7  1  0  0  0  0
  5  8  1  0  0  0  0
  8  9  1  0  0  0  0
  9 10  1  0  0  0  0
 10 11  1  0  0  0  0
 11 12  1  0  0  0  0
 12 13  1  0  0  0  0
 13 14  1  0  0  0  0
 12 15  1  0  0  0  0
 15 16  1  0  0  0  0
 15 17  1  0  0  0  0
 17 18  1  0  0  0  0
 10 19  1  0  0  0  0
 17 19  1  0  0  0  0
 19 20  1  0  0  0  0
  8 21  1  0  0  0  0
 21 22  1  0  0  0  0
  3 23  1  0  0  0  0
 21 23  1  0  0  0  0
 23 24  1  0  0  0  0
  1 25  1  0  0  0  0
  1 26  1  0  0  0  0
  1 27  1  0  0  0  0
  3 28  1  0  0  0  0
  5 29  1  0  0  0  0
  6 30  1  0  0  0  0
  6 31  1  0  0  0  0
  7 32  1  0  0  0  0
  8 33  1  0  0  0  0
 10 34  1  0  0  0  0
 12 35  1  0  0  0  0
 13 36  1  0  0  0  0
 13 37  1  0  0  0  0
 14 38  1  0  0  0  0
 15 39  1  0  0  0  0
 16 40  1  0  0  0  0
 17 41  1  0  0  0  0
 18 42  1  0  0  0  0
 19 43  1  0  0  0  0
 20 44  1  0  0  0  0
 21 45  1  0  0  0  0
 22 46  1  0  0  0  0
 23 47  1  0  0  0  0
 24 48  1  0  0  0  0
M  END
