 xtb: 6.7.1 (edcfbbe)
          09222613173D

 48 49  0     0  0            999 V2000
    5.0669    2.6610   -1.1125 C   0  0  0  0  0  0  0  0  0  0  0  0
    4.6946    1.2968   -1.1390 O   0  0  0  0  0  0  0  0  0  0  0  0
    3.3351    1.0784   -1.1790 C   0  0  0  0  0  0  0  0  0  0  0  0
    2.8036    1.4069    0.0923 O   0  0  0  0  0  0  0  0  0  0  0  0
    1.4244    1.1693    0.2555 C   0  0  0  0  0  0  0  0  0  0  0  0
    1.1095    1.5622    1.7076 C   0  0  0  0  0  0  0  0  0  0  0  0
    1.9529    0.8991    2.6034 O   0  0  0  0  0  0  0  0  0  0  0  0
    1.0703   -0.3057    0.0040 C   0  0  0  0  0  0  0  0  0  0  0  0
   -0.3457   -0.4300    0.0114 O   0  0  0  0  0  0  0  0  0  0  0  0
   -0.9190   -1.4261    0.8073 C   0  0  0  0  0  0  0  0  0  0  0  0
   -1.5931   -0.8702    1.9059 O   0  0  0  0  0  0  0  0  0  0  0  0
   -2.6498    0.0033    1.5488 C   0  0  0  0  0  0  0  0  0  0  0  0
   -3.2415    0.5442    2.8582 C   0  0  0  0  0  0  0  0  0  0  0  0
   -4.2296    1.5222    2.6302 O   0  0  0  0  0  0  0  0  0  0  0  0
   -3.7128   -0.7271    0.7102 C   0  0  0  0  0  0  0  0  0  0  0  0
   -4.7206    0.1393    0.2519 O   0  0  0  0  0  0  0  0  0  0  0  0
   -3.0341   -1.3468   -0.5147 C   0  0  0  0  0  0  0  0  0  0  0  0
   -3.9285   -2.1196   -1.2787 O   0  0  0  0  0  0  0  0  0  0  0  0
   -1.9009   -2.2565   -0.0419 C   0  0  0  0  0  0  0  0  0  0  0  0
   -1.2158   -2.8295   -1.1251 O   0  0  0  0  0  0  0  0  0  0  0  0
    1.6067   -0.7505   -1.3639 C   0  0  0  0  0  0  0  0  0  0  0  0
    1.5018   -2.1366   -1.5583 O   0  0  0  0  0  0  0  0  0  0  0  0
    3.0923   -0.3958   -1.5169 C   0  0  0  0  0  0  0  0  0  0  0  0
    3.5038   -0.6165   -2.8365 O   0  0  0  0  0  0  0  0  0  0  0  0
    4.6848    3.1568   -0.2161 H   0  0  0  0  0  0  0  0  0  0  0  0
    4.6948    3.1817   -2.0017 H   0  0  0  0  0  0  0  0  0  0  0  0
    6.1541    2.6726   -1.1074 H   0  0  0  0  0  0  0  0  0  0  0  0
    2.8464    1.7086   -1.9515 H   0  0  0  0  0  0  0  0  0  0  0  0
    0.8397    1.7878   -0.4439 H   0  0  0  0  0  0  0  0  0  0  0  0
    0.0885    1.2689    1.9568 H   0  0  0  0  0  0  0  0  0  0  0  0
    1.2144    2.6524    1.8088 H   0  0  0  0  0  0  0  0  0  0  0  0
    2.8540    0.9963    2.2661 H   0  0  0  0  0  0  0  0  0  0  0  0
    1.5193   -0.9209    0.7931 H   0  0  0  0  0  0  0  0  0  0  0  0
   -0.1549   -2.0817    1.2415 H   0  0  0  0  0  0  0  0  0  0  0  0
   -2.2553    0.8375    0.9449 H   0  0  0  0  0  0  0  0  0  0  0  0
   -2.4270    0.9274    3.4820 H   0  0  0  0  0  0  0  0  0  0  0  0
   -3.7332   -0.2686    3.3963 H   0  0  0  0  0  0  0  0  0  0  0  0
   -3.8108    2.3232    2.2939 H   0  0  0  0  0  0  0  0  0  0  0  0
   -4.1496   -1.5381    1.3176 H   0  0  0  0  0  0  0  0  0  0  0  0
   -5.0307    0.6586    1.0111 H   0  0  0  0  0  0  0  0  0  0  0  0
   -2.6101   -0.5386   -1.1310 H   0  0  0  0  0  0  0  0  0  0  0  0
   -4.7365   -1.6010   -1.3756 H   0  0  0  0  0  0  0  0  0  0  0  0
   -2.3251   -3.0468    0.5966 H   0  0  0  0  0  0  0  0  0  0  0  0
   -1.8872   -3.1003   -1.7663 H   0  0  0  0  0  0  0  0  0  0  0  0
    1.0369   -0.2110   -2.1396 H   0  0  0  0  0  0  0  0  0  0  0  0
    0.5725   -2.4016   -1.4448 H   0  0  0  0  0  0  0  0  0  0  0  0
    3.6801   -1.0068   -0.8160 H   0  0  0  0  0  0  0  0  0  0  0  0
    3.2644   -1.5279   -3.0516 H   0  0  0  0  0  0  0  0  0  0  0  0
  1  2  1  0  0  0  0
  2  3  1  0  0  0  0
  3  4  1  0  0  0  0
  4  5  1  0  0  0  0
  5  6  1  0  0  0  0
  6  7  1  0  0  0  0
  5  8  1  0  0  0  0
  8  9  1  0  0  0  0
  9 10  1  0  0  0  0
 10 11  1  0  0  0  0
 11 12  1  0  0  0  0
 12 13  1  0  0  0  0
 13 14  1  0  0  0  0
 12 15  1  0  0  0  0
 15 16  1  0  0  0  0
 15 17  1  0  0  0  0
 17 18  1  0  0  0  0
 10 19  1  0  0  0  0
 17 19  1  0  0  0  0
 19 20  1  0  0  0  0
  8 21  1  0  0  0  0
 21 22  1  0  0  0  0
  3 23  1  0  0  0  0
 21 23  1  0  0  0  0
 23 24  1  0  0  0  0
  1 25  1  0  0  0  0
  1 26  1  0  0  0  0
  1 27  1  0  0  0  0
  3 28  1  0  0  0  0
  5 29  1  0  0  0  0
  6 30  1  0  0  0  0
  6 31  1  0  0  0  0
  7 32  1  0  0  0  0
  8 33  1  0  0  0  0
 10 34  1  0  0  0  0
 12 35  1  0  0  0  0
 13 36  1  0  0  0  0
 13 37  1  0  0  0  0
 14 38  1  0  0  0  0
 15 39  1  0  0  0  0
 16 40  1  0  0  0  0
 17 41  1  0  0  0  0
 18 42  1  0  0  0  0
 19 43  1  0  0  0  0
 20 44  1  0  0  0  0
 21 45  1  0  0  0  0
 22 46  1  0  0  0  0
 23 47  1  0  0  0  0
 24 48  1  0  0  0  0
M  END
