 xtb: 6.7.1 (edcfbbe)
          09212615403D

 48 49  0     0  0            999 V2000
    5.4781   -1.5560    0.0599 C   0  0  0  0  0  0  0  0  0  0  0  0
    4.8774   -0.4003    0.6381 O   0  0  0  0  0  0  0  0  0  0  0  0
    3.4970   -0.4358    0.7191 C   0  0  0  0  0  0  0  0  0  0  0  0
    2.9398   -0.3903   -0.5769 O   0  0  0  0  0  0  0  0  0  0  0  0
    1.5287   -0.4751   -0.5660 C   0  0  0  0  0  0  0  0  0  0  0  0
    1.0533   -0.4563   -2.0251 C   0  0  0  0  0  0  0  0  0  0  0  0
    1.2688   -1.6749   -2.6808 O   0  0  0  0  0  0  0  0  0  0  0  0
    0.8792    0.6677    0.2379 C   0  0  0  0  0  0  0  0  0  0  0  0
   -0.4897    0.3289    0.3965 O   0  0  0  0  0  0  0  0  0  0  0  0
   -1.4587    1.2949    0.0902 C   0  0  0  0  0  0  0  0  0  0  0  0
   -2.1480    0.9634   -1.0857 O   0  0  0  0  0  0  0  0  0  0  0  0
   -2.8174   -0.2973   -1.0502 C   0  0  0  0  0  0  0  0  0  0  0  0
   -3.5213   -0.4571   -2.4047 C   0  0  0  0  0  0  0  0  0  0  0  0
   -2.6219   -0.5071   -3.4796 O   0  0  0  0  0  0  0  0  0  0  0  0
   -3.8289   -0.3641    0.1031 C   0  0  0  0  0  0  0  0  0  0  0  0
   -4.4371   -1.6254    0.2086 O   0  0  0  0  0  0  0  0  0  0  0  0
   -3.1503    0.0342    1.4215 C   0  0  0  0  0  0  0  0  0  0  0  0
   -4.0858    0.1415    2.4686 O   0  0  0  0  0  0  0  0  0  0  0  0
   -2.4658    1.3950    1.2538 C   0  0  0  0  0  0  0  0  0  0  0  0
   -1.7983    1.7953    2.4137 O   0  0  0  0  0  0  0  0  0  0  0  0
    1.5334    0.8926    1.6077 C   0  0  0  0  0  0  0  0  0  0  0  0
    1.1545    2.1730    2.0411 O   0  0  0  0  0  0  0  0  0  0  0  0
    3.0643    0.7937    1.5287 C   0  0  0  0  0  0  0  0  0  0  0  0
    3.5481    0.7361    2.8446 O   0  0  0  0  0  0  0  0  0  0  0  0
    5.2002   -1.6473   -0.9899 H   0  0  0  0  0  0  0  0  0  0  0  0
    5.1738   -2.4542    0.6041 H   0  0  0  0  0  0  0  0  0  0  0  0
    6.5489   -1.4011    0.1537 H   0  0  0  0  0  0  0  0  0  0  0  0
    3.1519   -1.3611    1.2283 H   0  0  0  0  0  0  0  0  0  0  0  0
    1.2218   -1.4251   -0.0985 H   0  0  0  0  0  0  0  0  0  0  0  0
    1.5590    0.3687   -2.5398 H   0  0  0  0  0  0  0  0  0  0  0  0
   -0.0243   -0.2895   -2.0438 H   0  0  0  0  0  0  0  0  0  0  0  0
    2.2203   -1.8259   -2.7690 H   0  0  0  0  0  0  0  0  0  0  0  0
    0.9753    1.6049   -0.3255 H   0  0  0  0  0  0  0  0  0  0  0  0
   -1.0018    2.2735   -0.0872 H   0  0  0  0  0  0  0  0  0  0  0  0
   -2.0674   -1.0921   -0.9249 H   0  0  0  0  0  0  0  0  0  0  0  0
   -4.2286    0.3719   -2.5259 H   0  0  0  0  0  0  0  0  0  0  0  0
   -4.0686   -1.4008   -2.4123 H   0  0  0  0  0  0  0  0  0  0  0  0
   -2.1647    0.3434   -3.5353 H   0  0  0  0  0  0  0  0  0  0  0  0
   -4.6470    0.3392   -0.0916 H   0  0  0  0  0  0  0  0  0  0  0  0
   -3.7593   -2.3117    0.3039 H   0  0  0  0  0  0  0  0  0  0  0  0
   -2.3765   -0.7071    1.6784 H   0  0  0  0  0  0  0  0  0  0  0  0
   -4.7129   -0.5947    2.3994 H   0  0  0  0  0  0  0  0  0  0  0  0
   -3.2284    2.1384    0.9697 H   0  0  0  0  0  0  0  0  0  0  0  0
   -2.4109    1.6943    3.1604 H   0  0  0  0  0  0  0  0  0  0  0  0
    1.1677    0.1230    2.3024 H   0  0  0  0  0  0  0  0  0  0  0  0
    1.5081    2.3190    2.9314 H   0  0  0  0  0  0  0  0  0  0  0  0
    3.4484    1.6816    1.0046 H   0  0  0  0  0  0  0  0  0  0  0  0
    4.5153    0.6765    2.8266 H   0  0  0  0  0  0  0  0  0  0  0  0
  1  2  1  0  0  0  0
  2  3  1  0  0  0  0
  3  4  1  0  0  0  0
  4  5  1  0  0  0  0
  5  6  1  0  0  0  0
  6  7  1  0  0  0  0
  5  8  1  0  0  0  0
  8  9  1  0  0  0  0
  9 10  1  0  0  0  0
 10 11  1  0  0  0  0
 11 12  1  0  0  0  0
 12 13  1  0  0  0  0
 13 14  1  0  0  0  0
 12 15  1  0  0  0  0
 15 16  1  0  0  0  0
 15 17  1  0  0  0  0
 17 18  1  0  0  0  0
 10 19  1  0  0  0  0
 17 19  1  0  0  0  0
 19 20  1  0  0  0  0
  8 21  1  0  0  0  0
 21 22  1  0  0  0  0
  3 23  1  0  0  0  0
 21 23  1  0  0  0  0
 23 24  1  0  0  0  0
  1 25  1  0  0  0  0
  1 26  1  0  0  0  0
  1 27  1  0  0  0  0
  3 28  1  0  0  0  0
  5 29  1  0  0  0  0
  6 30  1  0  0  0  0
  6 31  1  0  0  0  0
  7 32  1  0  0  0  0
  8 33  1  0  0  0  0
 10 34  1  0  0  0  0
 12 35  1  0  0  0  0
 13 36  1  0  0  0  0
 13 37  1  0  0  0  0
 14 38  1  0  0  0  0
 15 39  1  0  0  0  0
 16 40  1  0  0  0  0
 17 41  1  0  0  0  0
 18 42  1  0  0  0  0
 19 43  1  0  0  0  0
 20 44  1  0  0  0  0
 21 45  1  0  0  0  0
 22 46  1  0  0  0  0
 23 47  1  0  0  0  0
 24 48  1  0  0  0  0
M  END
