 xtb: 6.7.1 (edcfbbe)
          09222613203D

 48 49  0     0  0            999 V2000
    3.4745   -2.8734   -0.9973 C   0  0  0  0  0  0  0  0  0  0  0  0
    3.1804   -1.9576    0.0425 O   0  0  0  0  0  0  0  0  0  0  0  0
    2.1785   -1.0516   -0.2610 C   0  0  0  0  0  0  0  0  0  0  0  0
    2.6191   -0.1620   -1.2723 O   0  0  0  0  0  0  0  0  0  0  0  0
    1.5329    0.5792   -1.8215 C   0  0  0  0  0  0  0  0  0  0  0  0
    2.1346    1.6806   -2.7021 C   0  0  0  0  0  0  0  0  0  0  0  0
    2.9652    1.1441   -3.6951 O   0  0  0  0  0  0  0  0  0  0  0  0
    0.6101    1.1147   -0.6999 C   0  0  0  0  0  0  0  0  0  0  0  0
   -0.4861    0.2161   -0.6204 O   0  0  0  0  0  0  0  0  0  0  0  0
   -1.8130    0.6862   -0.6223 C   0  0  0  0  0  0  0  0  0  0  0  0
   -2.6251   -0.4119   -0.3446 O   0  0  0  0  0  0  0  0  0  0  0  0
   -2.4045   -0.9982    0.9376 C   0  0  0  0  0  0  0  0  0  0  0  0
   -3.2586   -2.2677    0.9809 C   0  0  0  0  0  0  0  0  0  0  0  0
   -2.7967   -3.2253    0.0692 O   0  0  0  0  0  0  0  0  0  0  0  0
   -2.7657   -0.0095    2.0519 C   0  0  0  0  0  0  0  0  0  0  0  0
   -2.4891   -0.5238    3.3305 O   0  0  0  0  0  0  0  0  0  0  0  0
   -1.9803    1.2885    1.8253 C   0  0  0  0  0  0  0  0  0  0  0  0
   -2.3994    2.3118    2.7015 O   0  0  0  0  0  0  0  0  0  0  0  0
   -2.1678    1.7963    0.3924 C   0  0  0  0  0  0  0  0  0  0  0  0
   -1.4400    2.9703    0.1564 O   0  0  0  0  0  0  0  0  0  0  0  0
    1.4234    1.1647    0.6146 C   0  0  0  0  0  0  0  0  0  0  0  0
    2.5381    1.9991    0.4802 O   0  0  0  0  0  0  0  0  0  0  0  0
    1.8525   -0.2575    1.0194 C   0  0  0  0  0  0  0  0  0  0  0  0
    0.8486   -0.8742    1.7879 O   0  0  0  0  0  0  0  0  0  0  0  0
    3.8361   -2.3536   -1.8872 H   0  0  0  0  0  0  0  0  0  0  0  0
    2.5874   -3.4616   -1.2565 H   0  0  0  0  0  0  0  0  0  0  0  0
    4.2523   -3.5262   -0.6088 H   0  0  0  0  0  0  0  0  0  0  0  0
    1.2644   -1.5656   -0.6190 H   0  0  0  0  0  0  0  0  0  0  0  0
    0.9359   -0.0996   -2.4508 H   0  0  0  0  0  0  0  0  0  0  0  0
    2.6839    2.3968   -2.0757 H   0  0  0  0  0  0  0  0  0  0  0  0
    1.3314    2.2090   -3.2192 H   0  0  0  0  0  0  0  0  0  0  0  0
    3.5930    0.5530   -3.2619 H   0  0  0  0  0  0  0  0  0  0  0  0
    0.2687    2.1220   -0.9474 H   0  0  0  0  0  0  0  0  0  0  0  0
   -2.0898    1.0283   -1.6315 H   0  0  0  0  0  0  0  0  0  0  0  0
   -1.3427   -1.2643    1.0331 H   0  0  0  0  0  0  0  0  0  0  0  0
   -4.3014   -1.9948    0.7682 H   0  0  0  0  0  0  0  0  0  0  0  0
   -3.1998   -2.7171    1.9739 H   0  0  0  0  0  0  0  0  0  0  0  0
   -2.7387   -2.7907   -0.7906 H   0  0  0  0  0  0  0  0  0  0  0  0
   -3.8410    0.2011    2.0385 H   0  0  0  0  0  0  0  0  0  0  0  0
   -1.5594   -0.7884    3.3530 H   0  0  0  0  0  0  0  0  0  0  0  0
   -0.9177    1.0622    1.9997 H   0  0  0  0  0  0  0  0  0  0  0  0
   -2.5675    1.9065    3.5616 H   0  0  0  0  0  0  0  0  0  0  0  0
   -3.2454    1.9905    0.2493 H   0  0  0  0  0  0  0  0  0  0  0  0
   -1.5912    3.5487    0.9164 H   0  0  0  0  0  0  0  0  0  0  0  0
    0.8247    1.6046    1.4137 H   0  0  0  0  0  0  0  0  0  0  0  0
    3.1712    1.5564   -0.1034 H   0  0  0  0  0  0  0  0  0  0  0  0
    2.7812   -0.1772    1.6058 H   0  0  0  0  0  0  0  0  0  0  0  0
    1.1328   -1.7785    1.9687 H   0  0  0  0  0  0  0  0  0  0  0  0
  1  2  1  0  0  0  0
  2  3  1  0  0  0  0
  3  4  1  0  0  0  0
  4  5  1  0  0  0  0
  5  6  1  0  0  0  0
  6  7  1  0  0  0  0
  5  8  1  0  0  0  0
  8  9  1  0  0  0  0
  9 10  1  0  0  0  0
 10 11  1  0  0  0  0
 11 12  1  0  0  0  0
 12 13  1  0  0  0  0
 13 14  1  0  0  0  0
 12 15  1  0  0  0  0
 15 16  1  0  0  0  0
 15 17  1  0  0  0  0
 17 18  1  0  0  0  0
 10 19  1  0  0  0  0
 17 19  1  0  0  0  0
 19 20  1  0  0  0  0
  8 21  1  0  0  0  0
 21 22  1  0  0  0  0
  3 23  1  0  0  0  0
 21 23  1  0  0  0  0
 23 24  1  0  0  0  0
  1 25  1  0  0  0  0
  1 26  1  0  0  0  0
  1 27  1  0  0  0  0
  3 28  1  0  0  0  0
  5 29  1  0  0  0  0
  6 30  1  0  0  0  0
  6 31  1  0  0  0  0
  7 32  1  0  0  0  0
  8 33  1  0  0  0  0
 10 34  1  0  0  0  0
 12 35  1  0  0  0  0
 13 36  1  0  0  0  0
 13 37  1  0  0  0  0
 14 38  1  0  0  0  0
 15 39  1  0  0  0  0
 16 40  1  0  0  0  0
 17 41  1  0  0  0  0
 18 42  1  0  0  0  0
 19 43  1  0  0  0  0
 20 44  1  0  0  0  0
 21 45  1  0  0  0  0
 22 46  1  0  0  0  0
 23 47  1  0  0  0  0
 24 48  1  0  0  0  0
M  END
