 xtb: 6.7.1 (edcfbbe)
          09222613253D

 48 49  0     0  0            999 V2000
    5.6711    1.2713   -0.3944 C   0  0  0  0  0  0  0  0  0  0  0  0
    4.7865    0.2516    0.0262 O   0  0  0  0  0  0  0  0  0  0  0  0
    3.5818    0.2288   -0.6434 C   0  0  0  0  0  0  0  0  0  0  0  0
    2.8099    1.3340   -0.2189 O   0  0  0  0  0  0  0  0  0  0  0  0
    1.5323    1.4172   -0.8200 C   0  0  0  0  0  0  0  0  0  0  0  0
    0.9500    2.7648   -0.3911 C   0  0  0  0  0  0  0  0  0  0  0  0
    1.7711    3.8160   -0.8218 O   0  0  0  0  0  0  0  0  0  0  0  0
    0.6944    0.1872   -0.4284 C   0  0  0  0  0  0  0  0  0  0  0  0
   -0.5860    0.2360   -1.0467 O   0  0  0  0  0  0  0  0  0  0  0  0
   -1.7140   -0.0124   -0.2762 C   0  0  0  0  0  0  0  0  0  0  0  0
   -1.4362   -0.9323    0.7572 O   0  0  0  0  0  0  0  0  0  0  0  0
   -2.5882   -1.6615    1.1593 C   0  0  0  0  0  0  0  0  0  0  0  0
   -2.8044   -2.9151    0.2859 C   0  0  0  0  0  0  0  0  0  0  0  0
   -1.7254   -3.8002    0.3384 O   0  0  0  0  0  0  0  0  0  0  0  0
   -3.8387   -0.7623    1.1655 C   0  0  0  0  0  0  0  0  0  0  0  0
   -4.7913   -1.1628    2.1177 O   0  0  0  0  0  0  0  0  0  0  0  0
   -3.4319    0.7033    1.4046 C   0  0  0  0  0  0  0  0  0  0  0  0
   -4.5584    1.5392    1.3627 O   0  0  0  0  0  0  0  0  0  0  0  0
   -2.3887    1.2172    0.3821 C   0  0  0  0  0  0  0  0  0  0  0  0
   -1.4228    1.9937    1.0361 O   0  0  0  0  0  0  0  0  0  0  0  0
    1.4263   -1.0980   -0.8262 C   0  0  0  0  0  0  0  0  0  0  0  0
    0.7726   -2.2556   -0.3516 O   0  0  0  0  0  0  0  0  0  0  0  0
    2.8773   -1.0912   -0.3092 C   0  0  0  0  0  0  0  0  0  0  0  0
    3.5987   -2.1383   -0.8972 O   0  0  0  0  0  0  0  0  0  0  0  0
    5.2611    2.2629   -0.1840 H   0  0  0  0  0  0  0  0  0  0  0  0
    5.8812    1.1857   -1.4662 H   0  0  0  0  0  0  0  0  0  0  0  0
    6.5867    1.1233    0.1731 H   0  0  0  0  0  0  0  0  0  0  0  0
    3.7298    0.2861   -1.7429 H   0  0  0  0  0  0  0  0  0  0  0  0
    1.6466    1.4178   -1.9182 H   0  0  0  0  0  0  0  0  0  0  0  0
    0.8407    2.7727    0.6994 H   0  0  0  0  0  0  0  0  0  0  0  0
   -0.0239    2.9070   -0.8568 H   0  0  0  0  0  0  0  0  0  0  0  0
    2.6650    3.6149   -0.5182 H   0  0  0  0  0  0  0  0  0  0  0  0
    0.5709    0.2057    0.6624 H   0  0  0  0  0  0  0  0  0  0  0  0
   -2.4361   -0.4370   -0.9912 H   0  0  0  0  0  0  0  0  0  0  0  0
   -2.3581   -1.9880    2.1815 H   0  0  0  0  0  0  0  0  0  0  0  0
   -3.0123   -2.6061   -0.7481 H   0  0  0  0  0  0  0  0  0  0  0  0
   -3.6742   -3.4526    0.6712 H   0  0  0  0  0  0  0  0  0  0  0  0
   -0.9616   -3.3964   -0.1000 H   0  0  0  0  0  0  0  0  0  0  0  0
   -4.3675   -0.8301    0.2079 H   0  0  0  0  0  0  0  0  0  0  0  0
   -4.3771   -1.2096    2.9891 H   0  0  0  0  0  0  0  0  0  0  0  0
   -2.9592    0.7594    2.4034 H   0  0  0  0  0  0  0  0  0  0  0  0
   -5.3072    1.0470    1.7277 H   0  0  0  0  0  0  0  0  0  0  0  0
   -2.9070    1.7997   -0.3909 H   0  0  0  0  0  0  0  0  0  0  0  0
   -1.8528    2.7876    1.3756 H   0  0  0  0  0  0  0  0  0  0  0  0
    1.4373   -1.1872   -1.9188 H   0  0  0  0  0  0  0  0  0  0  0  0
    0.4362   -2.0621    0.5356 H   0  0  0  0  0  0  0  0  0  0  0  0
    2.8735   -1.1902    0.7888 H   0  0  0  0  0  0  0  0  0  0  0  0
    3.0670   -2.9411   -0.8073 H   0  0  0  0  0  0  0  0  0  0  0  0
  1  2  1  0  0  0  0
  2  3  1  0  0  0  0
  3  4  1  0  0  0  0
  4  5  1  0  0  0  0
  5  6  1  0  0  0  0
  6  7  1  0  0  0  0
  5  8  1  0  0  0  0
  8  9  1  0  0  0  0
  9 10  1  0  0  0  0
 10 11  1  0  0  0  0
 11 12  1  0  0  0  0
 12 13  1  0  0  0  0
 13 14  1  0  0  0  0
 12 15  1  0  0  0  0
 15 16  1  0  0  0  0
 15 17  1  0  0  0  0
 17 18  1  0  0  0  0
 10 19  1  0  0  0  0
 17 19  1  0  0  0  0
 19 20  1  0  0  0  0
  8 21  1  0  0  0  0
 21 22  1  0  0  0  0
  3 23  1  0  0  0  0
 21 23  1  0  0  0  0
 23 24  1  0  0  0  0
  1 25  1  0  0  0  0
  1 26  1  0  0  0  0
  1 27  1  0  0  0  0
  3 28  1  0  0  0  0
  5 29  1  0  0  0  0
  6 30  1  0  0  0  0
  6 31  1  0  0  0  0
  7 32  1  0  0  0  0
  8 33  1  0  0  0  0
 10 34  1  0  0  0  0
 12 35  1  0  0  0  0
 13 36  1  0  0  0  0
 13 37  1  0  0  0  0
 14 38  1  0  0  0  0
 15 39  1  0  0  0  0
 16 40  1  0  0  0  0
 17 41  1  0  0  0  0
 18 42  1  0  0  0  0
 19 43  1  0  0  0  0
 20 44  1  0  0  0  0
 21 45  1  0  0  0  0
 22 46  1  0  0  0  0
 23 47  1  0  0  0  0
 24 48  1  0  0  0  0
M  END
