 xtb: 6.7.1 (edcfbbe)
          09212615503D

 48 49  0     0  0            999 V2000
    5.3178    1.4917   -0.3822 C   0  0  0  0  0  0  0  0  0  0  0  0
    4.5444    0.4230   -0.9187 O   0  0  0  0  0  0  0  0  0  0  0  0
    3.2300    0.7355   -1.2009 C   0  0  0  0  0  0  0  0  0  0  0  0
    2.5273    0.8780    0.0179 O   0  0  0  0  0  0  0  0  0  0  0  0
    1.1441    1.1422   -0.1390 C   0  0  0  0  0  0  0  0  0  0  0  0
    0.6026    1.4821    1.2495 C   0  0  0  0  0  0  0  0  0  0  0  0
    1.0610    2.7235    1.7094 O   0  0  0  0  0  0  0  0  0  0  0  0
    0.4623   -0.0571   -0.8249 C   0  0  0  0  0  0  0  0  0  0  0  0
   -0.9212    0.1847   -1.0245 O   0  0  0  0  0  0  0  0  0  0  0  0
   -1.8496   -0.8216   -0.6507 C   0  0  0  0  0  0  0  0  0  0  0  0
   -1.4919   -1.6261    0.4229 O   0  0  0  0  0  0  0  0  0  0  0  0
   -1.7162   -1.1566    1.7598 C   0  0  0  0  0  0  0  0  0  0  0  0
   -1.5642   -2.3781    2.6805 C   0  0  0  0  0  0  0  0  0  0  0  0
   -0.2380   -2.8263    2.7721 O   0  0  0  0  0  0  0  0  0  0  0  0
   -3.0982   -0.5171    1.9467 C   0  0  0  0  0  0  0  0  0  0  0  0
   -3.2529    0.0375    3.2259 O   0  0  0  0  0  0  0  0  0  0  0  0
   -3.3509    0.5272    0.8505 C   0  0  0  0  0  0  0  0  0  0  0  0
   -4.6437    1.0716    0.9498 O   0  0  0  0  0  0  0  0  0  0  0  0
   -3.2340   -0.1688   -0.5068 C   0  0  0  0  0  0  0  0  0  0  0  0
   -3.4375    0.6989   -1.5831 O   0  0  0  0  0  0  0  0  0  0  0  0
    1.1339   -0.3101   -2.1853 C   0  0  0  0  0  0  0  0  0  0  0  0
    0.6297   -1.4541   -2.8285 O   0  0  0  0  0  0  0  0  0  0  0  0
    2.6619   -0.4085   -2.0504 C   0  0  0  0  0  0  0  0  0  0  0  0
    3.2792   -0.3433   -3.3078 O   0  0  0  0  0  0  0  0  0  0  0  0
    4.9524    1.7712    0.6070 H   0  0  0  0  0  0  0  0  0  0  0  0
    5.2872    2.3567   -1.0501 H   0  0  0  0  0  0  0  0  0  0  0  0
    6.3306    1.1054   -0.3136 H   0  0  0  0  0  0  0  0  0  0  0  0
    3.1555    1.6799   -1.7786 H   0  0  0  0  0  0  0  0  0  0  0  0
    1.0076    2.0235   -0.7875 H   0  0  0  0  0  0  0  0  0  0  0  0
    0.8897    0.6823    1.9440 H   0  0  0  0  0  0  0  0  0  0  0  0
   -0.4818    1.5727    1.1798 H   0  0  0  0  0  0  0  0  0  0  0  0
    2.0269    2.7013    1.7597 H   0  0  0  0  0  0  0  0  0  0  0  0
    0.5923   -0.9424   -0.1871 H   0  0  0  0  0  0  0  0  0  0  0  0
   -1.9012   -1.5335   -1.4952 H   0  0  0  0  0  0  0  0  0  0  0  0
   -0.9452   -0.4228    2.0228 H   0  0  0  0  0  0  0  0  0  0  0  0
   -2.2267   -3.1723    2.3201 H   0  0  0  0  0  0  0  0  0  0  0  0
   -1.8626   -2.0899    3.6902 H   0  0  0  0  0  0  0  0  0  0  0  0
    0.0191   -3.2201    1.9278 H   0  0  0  0  0  0  0  0  0  0  0  0
   -3.8735   -1.2888    1.8717 H   0  0  0  0  0  0  0  0  0  0  0  0
   -2.5511    0.6827    3.4001 H   0  0  0  0  0  0  0  0  0  0  0  0
   -2.6005    1.3328    0.9069 H   0  0  0  0  0  0  0  0  0  0  0  0
   -4.8510    1.2137    1.8870 H   0  0  0  0  0  0  0  0  0  0  0  0
   -3.9810   -0.9804   -0.5290 H   0  0  0  0  0  0  0  0  0  0  0  0
   -4.2301    1.2276   -1.3938 H   0  0  0  0  0  0  0  0  0  0  0  0
    0.8809    0.5232   -2.8501 H   0  0  0  0  0  0  0  0  0  0  0  0
    0.8052   -2.2390   -2.2874 H   0  0  0  0  0  0  0  0  0  0  0  0
    2.9295   -1.3472   -1.5383 H   0  0  0  0  0  0  0  0  0  0  0  0
    2.8317   -0.9646   -3.9053 H   0  0  0  0  0  0  0  0  0  0  0  0
  1  2  1  0  0  0  0
  2  3  1  0  0  0  0
  3  4  1  0  0  0  0
  4  5  1  0  0  0  0
  5  6  1  0  0  0  0
  6  7  1  0  0  0  0
  5  8  1  0  0  0  0
  8  9  1  0  0  0  0
  9 10  1  0  0  0  0
 10 11  1  0  0  0  0
 11 12  1  0  0  0  0
 12 13  1  0  0  0  0
 13 14  1  0  0  0  0
 12 15  1  0  0  0  0
 15 16  1  0  0  0  0
 15 17  1  0  0  0  0
 17 18  1  0  0  0  0
 10 19  1  0  0  0  0
 17 19  1  0  0  0  0
 19 20  1  0  0  0  0
  8 21  1  0  0  0  0
 21 22  1  0  0  0  0
  3 23  1  0  0  0  0
 21 23  1  0  0  0  0
 23 24  1  0  0  0  0
  1 25  1  0  0  0  0
  1 26  1  0  0  0  0
  1 27  1  0  0  0  0
  3 28  1  0  0  0  0
  5 29  1  0  0  0  0
  6 30  1  0  0  0  0
  6 31  1  0  0  0  0
  7 32  1  0  0  0  0
  8 33  1  0  0  0  0
 10 34  1  0  0  0  0
 12 35  1  0  0  0  0
 13 36  1  0  0  0  0
 13 37  1  0  0  0  0
 14 38  1  0  0  0  0
 15 39  1  0  0  0  0
 16 40  1  0  0  0  0
 17 41  1  0  0  0  0
 18 42  1  0  0  0  0
 19 43  1  0  0  0  0
 20 44  1  0  0  0  0
 21 45  1  0  0  0  0
 22 46  1  0  0  0  0
 23 47  1  0  0  0  0
 24 48  1  0  0  0  0
M  END
