 xtb: 6.7.1 (edcfbbe)
          09212615403D

 48 49  0     0  0            999 V2000
    5.6349   -1.5045   -0.5018 C   0  0  0  0  0  0  0  0  0  0  0  0
    4.9689   -0.4569    0.1966 O   0  0  0  0  0  0  0  0  0  0  0  0
    3.6149   -0.6489    0.3843 C   0  0  0  0  0  0  0  0  0  0  0  0
    2.9588   -0.5103   -0.8598 O   0  0  0  0  0  0  0  0  0  0  0  0
    1.5539   -0.6163   -0.7665 C   0  0  0  0  0  0  0  0  0  0  0  0
    0.9969   -0.5816   -2.1961 C   0  0  0  0  0  0  0  0  0  0  0  0
    1.3059   -1.7393   -2.9206 O   0  0  0  0  0  0  0  0  0  0  0  0
    0.9562    0.5174    0.0912 C   0  0  0  0  0  0  0  0  0  0  0  0
   -0.4413    0.2683    0.1690 O   0  0  0  0  0  0  0  0  0  0  0  0
   -1.3474    1.3041   -0.1247 C   0  0  0  0  0  0  0  0  0  0  0  0
   -2.2800    0.8510   -1.0665 O   0  0  0  0  0  0  0  0  0  0  0  0
   -3.0347   -0.2921   -0.6614 C   0  0  0  0  0  0  0  0  0  0  0  0
   -3.9901   -0.6223   -1.8153 C   0  0  0  0  0  0  0  0  0  0  0  0
   -3.3269   -1.1221   -2.9453 O   0  0  0  0  0  0  0  0  0  0  0  0
   -3.8175   -0.0148    0.6313 C   0  0  0  0  0  0  0  0  0  0  0  0
   -4.4992   -1.1469    1.1022 O   0  0  0  0  0  0  0  0  0  0  0  0
   -2.8709    0.5483    1.7010 C   0  0  0  0  0  0  0  0  0  0  0  0
   -3.5706    0.9747    2.8453 O   0  0  0  0  0  0  0  0  0  0  0  0
   -2.1308    1.7582    1.1251 C   0  0  0  0  0  0  0  0  0  0  0  0
   -1.2762    2.3431    2.0694 O   0  0  0  0  0  0  0  0  0  0  0  0
    1.6094    0.5095    1.4822 C   0  0  0  0  0  0  0  0  0  0  0  0
    1.3761    1.6846    2.2124 O   0  0  0  0  0  0  0  0  0  0  0  0
    3.1431    0.4077    1.3875 C   0  0  0  0  0  0  0  0  0  0  0  0
    3.6857    0.0680    2.6342 O   0  0  0  0  0  0  0  0  0  0  0  0
    5.2782   -1.5677   -1.5308 H   0  0  0  0  0  0  0  0  0  0  0  0
    5.4793   -2.4600    0.0064 H   0  0  0  0  0  0  0  0  0  0  0  0
    6.6870   -1.2357   -0.4839 H   0  0  0  0  0  0  0  0  0  0  0  0
    3.4066   -1.6582    0.7972 H   0  0  0  0  0  0  0  0  0  0  0  0
    1.2844   -1.5764   -0.2982 H   0  0  0  0  0  0  0  0  0  0  0  0
    1.3853    0.3131   -2.6976 H   0  0  0  0  0  0  0  0  0  0  0  0
   -0.0920   -0.5326   -2.1490 H   0  0  0  0  0  0  0  0  0  0  0  0
    2.2676   -1.8135   -2.9946 H   0  0  0  0  0  0  0  0  0  0  0  0
    1.1520    1.4830   -0.3908 H   0  0  0  0  0  0  0  0  0  0  0  0
   -0.8388    2.1583   -0.5854 H   0  0  0  0  0  0  0  0  0  0  0  0
   -2.3443   -1.1325   -0.5023 H   0  0  0  0  0  0  0  0  0  0  0  0
   -4.5584    0.2823   -2.0611 H   0  0  0  0  0  0  0  0  0  0  0  0
   -4.6792   -1.4039   -1.4906 H   0  0  0  0  0  0  0  0  0  0  0  0
   -2.7575   -0.4278   -3.3042 H   0  0  0  0  0  0  0  0  0  0  0  0
   -4.5954    0.7309    0.4292 H   0  0  0  0  0  0  0  0  0  0  0  0
   -3.8817   -1.8859    1.2100 H   0  0  0  0  0  0  0  0  0  0  0  0
   -2.1269   -0.2176    1.9750 H   0  0  0  0  0  0  0  0  0  0  0  0
   -4.2611    0.3260    3.0489 H   0  0  0  0  0  0  0  0  0  0  0  0
   -2.8730    2.4966    0.7856 H   0  0  0  0  0  0  0  0  0  0  0  0
   -1.7838    2.4676    2.8892 H   0  0  0  0  0  0  0  0  0  0  0  0
    1.2316   -0.3696    2.0298 H   0  0  0  0  0  0  0  0  0  0  0  0
    0.4214    1.9027    2.2157 H   0  0  0  0  0  0  0  0  0  0  0  0
    3.5301    1.3776    1.0441 H   0  0  0  0  0  0  0  0  0  0  0  0
    3.4495    0.7646    3.2671 H   0  0  0  0  0  0  0  0  0  0  0  0
  1  2  1  0  0  0  0
  2  3  1  0  0  0  0
  3  4  1  0  0  0  0
  4  5  1  0  0  0  0
  5  6  1  0  0  0  0
  6  7  1  0  0  0  0
  5  8  1  0  0  0  0
  8  9  1  0  0  0  0
  9 10  1  0  0  0  0
 10 11  1  0  0  0  0
 11 12  1  0  0  0  0
 12 13  1  0  0  0  0
 13 14  1  0  0  0  0
 12 15  1  0  0  0  0
 15 16  1  0  0  0  0
 15 17  1  0  0  0  0
 17 18  1  0  0  0  0
 10 19  1  0  0  0  0
 17 19  1  0  0  0  0
 19 20  1  0  0  0  0
  8 21  1  0  0  0  0
 21 22  1  0  0  0  0
  3 23  1  0  0  0  0
 21 23  1  0  0  0  0
 23 24  1  0  0  0  0
  1 25  1  0  0  0  0
  1 26  1  0  0  0  0
  1 27  1  0  0  0  0
  3 28  1  0  0  0  0
  5 29  1  0  0  0  0
  6 30  1  0  0  0  0
  6 31  1  0  0  0  0
  7 32  1  0  0  0  0
  8 33  1  0  0  0  0
 10 34  1  0  0  0  0
 12 35  1  0  0  0  0
 13 36  1  0  0  0  0
 13 37  1  0  0  0  0
 14 38  1  0  0  0  0
 15 39  1  0  0  0  0
 16 40  1  0  0  0  0
 17 41  1  0  0  0  0
 18 42  1  0  0  0  0
 19 43  1  0  0  0  0
 20 44  1  0  0  0  0
 21 45  1  0  0  0  0
 22 46  1  0  0  0  0
 23 47  1  0  0  0  0
 24 48  1  0  0  0  0
M  END
