 xtb: 6.7.1 (edcfbbe)
          09222613133D

 48 49  0     0  0            999 V2000
    5.5572    1.0427    0.6315 C   0  0  0  0  0  0  0  0  0  0  0  0
    4.9116   -0.0123   -0.0534 O   0  0  0  0  0  0  0  0  0  0  0  0
    3.5838    0.2194   -0.3358 C   0  0  0  0  0  0  0  0  0  0  0  0
    2.8621    0.1818    0.8839 O   0  0  0  0  0  0  0  0  0  0  0  0
    1.4638    0.3224    0.7769 C   0  0  0  0  0  0  0  0  0  0  0  0
    0.9031    0.2483    2.2072 C   0  0  0  0  0  0  0  0  0  0  0  0
    0.7297    1.5143    2.7952 O   0  0  0  0  0  0  0  0  0  0  0  0
    0.8714   -0.7693   -0.1307 C   0  0  0  0  0  0  0  0  0  0  0  0
   -0.4926   -0.5148   -0.4198 O   0  0  0  0  0  0  0  0  0  0  0  0
   -1.4684   -1.3189    0.1702 C   0  0  0  0  0  0  0  0  0  0  0  0
   -1.9960   -0.7356    1.3288 O   0  0  0  0  0  0  0  0  0  0  0  0
   -2.5828    0.5415    1.0898 C   0  0  0  0  0  0  0  0  0  0  0  0
   -2.9409    1.1824    2.4437 C   0  0  0  0  0  0  0  0  0  0  0  0
   -2.1330    2.2818    2.7506 O   0  0  0  0  0  0  0  0  0  0  0  0
   -3.7810    0.3720    0.1462 C   0  0  0  0  0  0  0  0  0  0  0  0
   -4.4759    1.5687   -0.0932 O   0  0  0  0  0  0  0  0  0  0  0  0
   -3.2757   -0.2340   -1.1744 C   0  0  0  0  0  0  0  0  0  0  0  0
   -4.3352   -0.4787   -2.0686 O   0  0  0  0  0  0  0  0  0  0  0  0
   -2.5635   -1.5572   -0.8847 C   0  0  0  0  0  0  0  0  0  0  0  0
   -1.9491   -2.0862   -2.0307 O   0  0  0  0  0  0  0  0  0  0  0  0
    1.5862   -0.7756   -1.4868 C   0  0  0  0  0  0  0  0  0  0  0  0
    1.1675   -1.8586   -2.2760 O   0  0  0  0  0  0  0  0  0  0  0  0
    3.1058   -0.8651   -1.3106 C   0  0  0  0  0  0  0  0  0  0  0  0
    3.7496   -0.6634   -2.5368 O   0  0  0  0  0  0  0  0  0  0  0  0
    5.1118    1.2033    1.6169 H   0  0  0  0  0  0  0  0  0  0  0  0
    5.5046    1.9717    0.0524 H   0  0  0  0  0  0  0  0  0  0  0  0
    6.5945    0.7359    0.7407 H   0  0  0  0  0  0  0  0  0  0  0  0
    3.4406    1.2128   -0.8129 H   0  0  0  0  0  0  0  0  0  0  0  0
    1.2108    1.3008    0.3325 H   0  0  0  0  0  0  0  0  0  0  0  0
    1.5868   -0.3713    2.7994 H   0  0  0  0  0  0  0  0  0  0  0  0
   -0.0847   -0.2135    2.2018 H   0  0  0  0  0  0  0  0  0  0  0  0
    1.5873    1.9505    2.8522 H   0  0  0  0  0  0  0  0  0  0  0  0
    0.9928   -1.7496    0.3477 H   0  0  0  0  0  0  0  0  0  0  0  0
   -1.0493   -2.2824    0.4902 H   0  0  0  0  0  0  0  0  0  0  0  0
   -1.8405    1.1857    0.5910 H   0  0  0  0  0  0  0  0  0  0  0  0
   -2.8809    0.4020    3.2123 H   0  0  0  0  0  0  0  0  0  0  0  0
   -3.9637    1.5656    2.4045 H   0  0  0  0  0  0  0  0  0  0  0  0
   -1.2111    1.9984    2.8603 H   0  0  0  0  0  0  0  0  0  0  0  0
   -4.5102   -0.3127    0.5956 H   0  0  0  0  0  0  0  0  0  0  0  0
   -3.8415    2.2835   -0.2285 H   0  0  0  0  0  0  0  0  0  0  0  0
   -2.5501    0.4575   -1.6362 H   0  0  0  0  0  0  0  0  0  0  0  0
   -4.9877    0.2227   -1.9396 H   0  0  0  0  0  0  0  0  0  0  0  0
   -3.2981   -2.2679   -0.4764 H   0  0  0  0  0  0  0  0  0  0  0  0
   -2.5972   -2.0346   -2.7457 H   0  0  0  0  0  0  0  0  0  0  0  0
    1.3500    0.1748   -1.9957 H   0  0  0  0  0  0  0  0  0  0  0  0
    0.1970   -1.8928   -2.2583 H   0  0  0  0  0  0  0  0  0  0  0  0
    3.3667   -1.8449   -0.8849 H   0  0  0  0  0  0  0  0  0  0  0  0
    3.3741   -1.3009   -3.1583 H   0  0  0  0  0  0  0  0  0  0  0  0
  1  2  1  0  0  0  0
  2  3  1  0  0  0  0
  3  4  1  0  0  0  0
  4  5  1  0  0  0  0
  5  6  1  0  0  0  0
  6  7  1  0  0  0  0
  5  8  1  0  0  0  0
  8  9  1  0  0  0  0
  9 10  1  0  0  0  0
 10 11  1  0  0  0  0
 11 12  1  0  0  0  0
 12 13  1  0  0  0  0
 13 14  1  0  0  0  0
 12 15  1  0  0  0  0
 15 16  1  0  0  0  0
 15 17  1  0  0  0  0
 17 18  1  0  0  0  0
 10 19  1  0  0  0  0
 17 19  1  0  0  0  0
 19 20  1  0  0  0  0
  8 21  1  0  0  0  0
 21 22  1  0  0  0  0
  3 23  1  0  0  0  0
 21 23  1  0  0  0  0
 23 24  1  0  0  0  0
  1 25  1  0  0  0  0
  1 26  1  0  0  0  0
  1 27  1  0  0  0  0
  3 28  1  0  0  0  0
  5 29  1  0  0  0  0
  6 30  1  0  0  0  0
  6 31  1  0  0  0  0
  7 32  1  0  0  0  0
  8 33  1  0  0  0  0
 10 34  1  0  0  0  0
 12 35  1  0  0  0  0
 13 36  1  0  0  0  0
 13 37  1  0  0  0  0
 14 38  1  0  0  0  0
 15 39  1  0  0  0  0
 16 40  1  0  0  0  0
 17 41  1  0  0  0  0
 18 42  1  0  0  0  0
 19 43  1  0  0  0  0
 20 44  1  0  0  0  0
 21 45  1  0  0  0  0
 22 46  1  0  0  0  0
 23 47  1  0  0  0  0
 24 48  1  0  0  0  0
M  END
