 xtb: 6.7.1 (edcfbbe)
          09222613183D

 48 49  0     0  0            999 V2000
    5.2909    2.6287   -0.2996 C   0  0  0  0  0  0  0  0  0  0  0  0
    4.6284    1.4863   -0.8099 O   0  0  0  0  0  0  0  0  0  0  0  0
    3.2580    1.5297   -0.6822 C   0  0  0  0  0  0  0  0  0  0  0  0
    2.9350    1.4518    0.6928 O   0  0  0  0  0  0  0  0  0  0  0  0
    1.5625    1.3908    0.9706 C   0  0  0  0  0  0  0  0  0  0  0  0
    1.3931    1.4570    2.4955 C   0  0  0  0  0  0  0  0  0  0  0  0
    1.6950    2.7142    3.0321 O   0  0  0  0  0  0  0  0  0  0  0  0
    0.9455    0.0979    0.3846 C   0  0  0  0  0  0  0  0  0  0  0  0
   -0.4346    0.0789    0.7190 O   0  0  0  0  0  0  0  0  0  0  0  0
   -0.9623   -1.0745    1.3265 C   0  0  0  0  0  0  0  0  0  0  0  0
   -2.2450   -0.7470    1.7689 O   0  0  0  0  0  0  0  0  0  0  0  0
   -3.1487   -0.4312    0.7185 C   0  0  0  0  0  0  0  0  0  0  0  0
   -4.4640    0.0040    1.3799 C   0  0  0  0  0  0  0  0  0  0  0  0
   -5.4084    0.4514    0.4357 O   0  0  0  0  0  0  0  0  0  0  0  0
   -3.3596   -1.6439   -0.2046 C   0  0  0  0  0  0  0  0  0  0  0  0
   -4.1648   -1.3390   -1.3147 O   0  0  0  0  0  0  0  0  0  0  0  0
   -1.9975   -2.1119   -0.7277 C   0  0  0  0  0  0  0  0  0  0  0  0
   -2.0968   -3.3314   -1.4287 O   0  0  0  0  0  0  0  0  0  0  0  0
   -1.0674   -2.3494    0.4631 C   0  0  0  0  0  0  0  0  0  0  0  0
    0.1936   -2.8247    0.0535 O   0  0  0  0  0  0  0  0  0  0  0  0
    1.1613    0.1752   -1.1347 C   0  0  0  0  0  0  0  0  0  0  0  0
    0.6703   -0.9187   -1.8620 O   0  0  0  0  0  0  0  0  0  0  0  0
    2.6620    0.3450   -1.4497 C   0  0  0  0  0  0  0  0  0  0  0  0
    2.8230    0.5670   -2.8229 O   0  0  0  0  0  0  0  0  0  0  0  0
    5.0947    2.7485    0.7684 H   0  0  0  0  0  0  0  0  0  0  0  0
    4.9709    3.5310   -0.8330 H   0  0  0  0  0  0  0  0  0  0  0  0
    6.3511    2.4575   -0.4683 H   0  0  0  0  0  0  0  0  0  0  0  0
    2.8440    2.4725   -1.1028 H   0  0  0  0  0  0  0  0  0  0  0  0
    1.0410    2.2492    0.5100 H   0  0  0  0  0  0  0  0  0  0  0  0
    2.0964    0.7619    2.9571 H   0  0  0  0  0  0  0  0  0  0  0  0
    0.3633    1.1632    2.7411 H   0  0  0  0  0  0  0  0  0  0  0  0
    1.1519    3.3823    2.5978 H   0  0  0  0  0  0  0  0  0  0  0  0
    1.4574   -0.7764    0.7991 H   0  0  0  0  0  0  0  0  0  0  0  0
   -0.3828   -1.3161    2.2324 H   0  0  0  0  0  0  0  0  0  0  0  0
   -2.7422    0.3968    0.1188 H   0  0  0  0  0  0  0  0  0  0  0  0
   -4.2448    0.7723    2.1287 H   0  0  0  0  0  0  0  0  0  0  0  0
   -4.9184   -0.8505    1.8855 H   0  0  0  0  0  0  0  0  0  0  0  0
   -5.1046    1.2843    0.0554 H   0  0  0  0  0  0  0  0  0  0  0  0
   -3.8096   -2.4620    0.3843 H   0  0  0  0  0  0  0  0  0  0  0  0
   -4.9613   -0.8905   -0.9890 H   0  0  0  0  0  0  0  0  0  0  0  0
   -1.5815   -1.3331   -1.3825 H   0  0  0  0  0  0  0  0  0  0  0  0
   -2.7956   -3.2232   -2.0843 H   0  0  0  0  0  0  0  0  0  0  0  0
   -1.5402   -3.1010    1.1158 H   0  0  0  0  0  0  0  0  0  0  0  0
    0.0114   -3.5866   -0.5165 H   0  0  0  0  0  0  0  0  0  0  0  0
    0.6258    1.0540   -1.5199 H   0  0  0  0  0  0  0  0  0  0  0  0
    0.7540   -1.7144   -1.3067 H   0  0  0  0  0  0  0  0  0  0  0  0
    3.2048   -0.5613   -1.1361 H   0  0  0  0  0  0  0  0  0  0  0  0
    2.2447   -0.0641   -3.2760 H   0  0  0  0  0  0  0  0  0  0  0  0
  1  2  1  0  0  0  0
  2  3  1  0  0  0  0
  3  4  1  0  0  0  0
  4  5  1  0  0  0  0
  5  6  1  0  0  0  0
  6  7  1  0  0  0  0
  5  8  1  0  0  0  0
  8  9  1  0  0  0  0
  9 10  1  0  0  0  0
 10 11  1  0  0  0  0
 11 12  1  0  0  0  0
 12 13  1  0  0  0  0
 13 14  1  0  0  0  0
 12 15  1  0  0  0  0
 15 16  1  0  0  0  0
 15 17  1  0  0  0  0
 17 18  1  0  0  0  0
 10 19  1  0  0  0  0
 17 19  1  0  0  0  0
 19 20  1  0  0  0  0
  8 21  1  0  0  0  0
 21 22  1  0  0  0  0
  3 23  1  0  0  0  0
 21 23  1  0  0  0  0
 23 24  1  0  0  0  0
  1 25  1  0  0  0  0
  1 26  1  0  0  0  0
  1 27  1  0  0  0  0
  3 28  1  0  0  0  0
  5 29  1  0  0  0  0
  6 30  1  0  0  0  0
  6 31  1  0  0  0  0
  7 32  1  0  0  0  0
  8 33  1  0  0  0  0
 10 34  1  0  0  0  0
 12 35  1  0  0  0  0
 13 36  1  0  0  0  0
 13 37  1  0  0  0  0
 14 38  1  0  0  0  0
 15 39  1  0  0  0  0
 16 40  1  0  0  0  0
 17 41  1  0  0  0  0
 18 42  1  0  0  0  0
 19 43  1  0  0  0  0
 20 44  1  0  0  0  0
 21 45  1  0  0  0  0
 22 46  1  0  0  0  0
 23 47  1  0  0  0  0
 24 48  1  0  0  0  0
M  END
