 xtb: 6.7.1 (edcfbbe)
          09222617053D

 48 49  0     0  0            999 V2000
    5.5156   -1.1729   -0.1464 C   0  0  0  0  0  0  0  0  0  0  0  0
    4.9014   -0.0747    0.4993 O   0  0  0  0  0  0  0  0  0  0  0  0
    3.5587   -0.2420    0.7506 C   0  0  0  0  0  0  0  0  0  0  0  0
    2.8610   -0.1671   -0.4810 O   0  0  0  0  0  0  0  0  0  0  0  0
    1.4649   -0.3077   -0.3826 C   0  0  0  0  0  0  0  0  0  0  0  0
    0.9165   -0.2425   -1.8246 C   0  0  0  0  0  0  0  0  0  0  0  0
    0.3183   -1.4417   -2.2567 O   0  0  0  0  0  0  0  0  0  0  0  0
    0.8268    0.7703    0.5226 C   0  0  0  0  0  0  0  0  0  0  0  0
   -0.5163    0.3800    0.7481 O   0  0  0  0  0  0  0  0  0  0  0  0
   -1.5245    1.3185    0.5285 C   0  0  0  0  0  0  0  0  0  0  0  0
   -1.9731    1.2639   -0.8070 O   0  0  0  0  0  0  0  0  0  0  0  0
   -2.4283   -0.0372   -1.1541 C   0  0  0  0  0  0  0  0  0  0  0  0
   -2.7366   -0.0749   -2.6553 C   0  0  0  0  0  0  0  0  0  0  0  0
   -2.6774   -1.3944   -3.1387 O   0  0  0  0  0  0  0  0  0  0  0  0
   -3.6336   -0.4561   -0.3059 C   0  0  0  0  0  0  0  0  0  0  0  0
   -4.0270   -1.7791   -0.5857 O   0  0  0  0  0  0  0  0  0  0  0  0
   -3.2436   -0.3730    1.1753 C   0  0  0  0  0  0  0  0  0  0  0  0
   -4.3440   -0.6093    2.0216 O   0  0  0  0  0  0  0  0  0  0  0  0
   -2.7018    1.0271    1.4758 C   0  0  0  0  0  0  0  0  0  0  0  0
   -2.2831    1.1594    2.8004 O   0  0  0  0  0  0  0  0  0  0  0  0
    1.5666    0.8444    1.8681 C   0  0  0  0  0  0  0  0  0  0  0  0
    1.1712    1.9351    2.6605 O   0  0  0  0  0  0  0  0  0  0  0  0
    3.0955    0.8740    1.6913 C   0  0  0  0  0  0  0  0  0  0  0  0
    3.7134    0.7062    2.9361 O   0  0  0  0  0  0  0  0  0  0  0  0
    5.0862   -1.3359   -1.1385 H   0  0  0  0  0  0  0  0  0  0  0  0
    5.4074   -2.0846    0.4519 H   0  0  0  0  0  0  0  0  0  0  0  0
    6.5678   -0.9150   -0.2363 H   0  0  0  0  0  0  0  0  0  0  0  0
    3.3548   -1.2245    1.2271 H   0  0  0  0  0  0  0  0  0  0  0  0
    1.2111   -1.2840    0.0648 H   0  0  0  0  0  0  0  0  0  0  0  0
    1.7519    0.0363   -2.4776 H   0  0  0  0  0  0  0  0  0  0  0  0
    0.1412    0.5210   -1.8988 H   0  0  0  0  0  0  0  0  0  0  0  0
    0.9895   -2.1336   -2.2730 H   0  0  0  0  0  0  0  0  0  0  0  0
    0.8750    1.7455    0.0184 H   0  0  0  0  0  0  0  0  0  0  0  0
   -1.1716    2.3445    0.6847 H   0  0  0  0  0  0  0  0  0  0  0  0
   -1.6260   -0.7633   -0.9538 H   0  0  0  0  0  0  0  0  0  0  0  0
   -2.0270    0.5764   -3.1779 H   0  0  0  0  0  0  0  0  0  0  0  0
   -3.7482    0.2872   -2.8533 H   0  0  0  0  0  0  0  0  0  0  0  0
   -1.7624   -1.6983   -3.0449 H   0  0  0  0  0  0  0  0  0  0  0  0
   -4.4724    0.2375   -0.4894 H   0  0  0  0  0  0  0  0  0  0  0  0
   -3.8849   -1.9468   -1.5298 H   0  0  0  0  0  0  0  0  0  0  0  0
   -2.4497   -1.1096    1.3725 H   0  0  0  0  0  0  0  0  0  0  0  0
   -4.7920   -1.3947    1.6848 H   0  0  0  0  0  0  0  0  0  0  0  0
   -3.4948    1.7602    1.2469 H   0  0  0  0  0  0  0  0  0  0  0  0
   -2.9338    0.6991    3.3468 H   0  0  0  0  0  0  0  0  0  0  0  0
    1.2933   -0.0404    2.4543 H   0  0  0  0  0  0  0  0  0  0  0  0
    1.2515    2.7520    2.1534 H   0  0  0  0  0  0  0  0  0  0  0  0
    3.3983    1.8317    1.2339 H   0  0  0  0  0  0  0  0  0  0  0  0
    3.2142    1.2329    3.5772 H   0  0  0  0  0  0  0  0  0  0  0  0
  1  2  1  0  0  0  0
  2  3  1  0  0  0  0
  3  4  1  0  0  0  0
  4  5  1  0  0  0  0
  5  6  1  0  0  0  0
  6  7  1  0  0  0  0
  5  8  1  0  0  0  0
  8  9  1  0  0  0  0
  9 10  1  0  0  0  0
 10 11  1  0  0  0  0
 11 12  1  0  0  0  0
 12 13  1  0  0  0  0
 13 14  1  0  0  0  0
 12 15  1  0  0  0  0
 15 16  1  0  0  0  0
 15 17  1  0  0  0  0
 17 18  1  0  0  0  0
 10 19  1  0  0  0  0
 17 19  1  0  0  0  0
 19 20  1  0  0  0  0
  8 21  1  0  0  0  0
 21 22  1  0  0  0  0
  3 23  1  0  0  0  0
 21 23  1  0  0  0  0
 23 24  1  0  0  0  0
  1 25  1  0  0  0  0
  1 26  1  0  0  0  0
  1 27  1  0  0  0  0
  3 28  1  0  0  0  0
  5 29  1  0  0  0  0
  6 30  1  0  0  0  0
  6 31  1  0  0  0  0
  7 32  1  0  0  0  0
  8 33  1  0  0  0  0
 10 34  1  0  0  0  0
 12 35  1  0  0  0  0
 13 36  1  0  0  0  0
 13 37  1  0  0  0  0
 14 38  1  0  0  0  0
 15 39  1  0  0  0  0
 16 40  1  0  0  0  0
 17 41  1  0  0  0  0
 18 42  1  0  0  0  0
 19 43  1  0  0  0  0
 20 44  1  0  0  0  0
 21 45  1  0  0  0  0
 22 46  1  0  0  0  0
 23 47  1  0  0  0  0
 24 48  1  0  0  0  0
M  END
