 xtb: 6.7.1 (edcfbbe)
          09222613013D

 48 49  0     0  0            999 V2000
    4.6399    0.8580    0.7520 C   0  0  0  0  0  0  0  0  0  0  0  0
    3.6649    0.3181   -0.1297 O   0  0  0  0  0  0  0  0  0  0  0  0
    3.2023    1.2227   -1.0899 C   0  0  0  0  0  0  0  0  0  0  0  0
    2.4952    2.2981   -0.5325 O   0  0  0  0  0  0  0  0  0  0  0  0
    1.0983    2.0877   -0.3373 C   0  0  0  0  0  0  0  0  0  0  0  0
    0.6783    2.9869    0.8314 C   0  0  0  0  0  0  0  0  0  0  0  0
    0.8386    4.3470    0.5314 O   0  0  0  0  0  0  0  0  0  0  0  0
    0.8000    0.6035   -0.0665 C   0  0  0  0  0  0  0  0  0  0  0  0
   -0.5664    0.4753    0.2930 O   0  0  0  0  0  0  0  0  0  0  0  0
   -0.8839   -0.2242    1.4738 C   0  0  0  0  0  0  0  0  0  0  0  0
   -2.2396   -0.0061    1.7163 O   0  0  0  0  0  0  0  0  0  0  0  0
   -3.0843   -0.5409    0.6996 C   0  0  0  0  0  0  0  0  0  0  0  0
   -4.5254   -0.1746    1.0885 C   0  0  0  0  0  0  0  0  0  0  0  0
   -5.4524   -0.5473    0.0983 O   0  0  0  0  0  0  0  0  0  0  0  0
   -2.9134   -2.0656    0.5727 C   0  0  0  0  0  0  0  0  0  0  0  0
   -3.6240   -2.5821   -0.5240 O   0  0  0  0  0  0  0  0  0  0  0  0
   -1.4314   -2.4175    0.3807 C   0  0  0  0  0  0  0  0  0  0  0  0
   -1.2111   -3.8047    0.4859 O   0  0  0  0  0  0  0  0  0  0  0  0
   -0.6243   -1.7423    1.4901 C   0  0  0  0  0  0  0  0  0  0  0  0
    0.7475   -2.0345    1.4268 O   0  0  0  0  0  0  0  0  0  0  0  0
    1.0834   -0.1446   -1.3856 C   0  0  0  0  0  0  0  0  0  0  0  0
    1.1775   -1.5318   -1.2537 O   0  0  0  0  0  0  0  0  0  0  0  0
    2.3402    0.4333   -2.0857 C   0  0  0  0  0  0  0  0  0  0  0  0
    1.9081    1.2496   -3.1423 O   0  0  0  0  0  0  0  0  0  0  0  0
    4.2431    1.7249    1.2855 H   0  0  0  0  0  0  0  0  0  0  0  0
    5.5349    1.1529    0.1955 H   0  0  0  0  0  0  0  0  0  0  0  0
    4.8784    0.0620    1.4522 H   0  0  0  0  0  0  0  0  0  0  0  0
    4.0610    1.6946   -1.6025 H   0  0  0  0  0  0  0  0  0  0  0  0
    0.5567    2.3971   -1.2422 H   0  0  0  0  0  0  0  0  0  0  0  0
    1.2691    2.7136    1.7180 H   0  0  0  0  0  0  0  0  0  0  0  0
   -0.3810    2.8318    1.0429 H   0  0  0  0  0  0  0  0  0  0  0  0
    1.7410    4.4751    0.2093 H   0  0  0  0  0  0  0  0  0  0  0  0
    1.4457    0.2289    0.7337 H   0  0  0  0  0  0  0  0  0  0  0  0
   -0.3494    0.2274    2.3269 H   0  0  0  0  0  0  0  0  0  0  0  0
   -2.8256   -0.0832   -0.2659 H   0  0  0  0  0  0  0  0  0  0  0  0
   -4.5656    0.8968    1.3056 H   0  0  0  0  0  0  0  0  0  0  0  0
   -4.8005   -0.7199    1.9943 H   0  0  0  0  0  0  0  0  0  0  0  0
   -5.4051    0.0749   -0.6396 H   0  0  0  0  0  0  0  0  0  0  0  0
   -3.2561   -2.5392    1.5095 H   0  0  0  0  0  0  0  0  0  0  0  0
   -4.5349   -2.2434   -0.4778 H   0  0  0  0  0  0  0  0  0  0  0  0
   -1.0950   -2.0513   -0.5995 H   0  0  0  0  0  0  0  0  0  0  0  0
   -1.7819   -4.2458   -0.1563 H   0  0  0  0  0  0  0  0  0  0  0  0
   -1.0262   -2.0913    2.4564 H   0  0  0  0  0  0  0  0  0  0  0  0
    0.8209   -3.0011    1.3954 H   0  0  0  0  0  0  0  0  0  0  0  0
    0.2400    0.0538   -2.0618 H   0  0  0  0  0  0  0  0  0  0  0  0
    1.5185   -1.7449   -0.3686 H   0  0  0  0  0  0  0  0  0  0  0  0
    2.9297   -0.4190   -2.4515 H   0  0  0  0  0  0  0  0  0  0  0  0
    2.6642    1.5414   -3.6694 H   0  0  0  0  0  0  0  0  0  0  0  0
  1  2  1  0  0  0  0
  2  3  1  0  0  0  0
  3  4  1  0  0  0  0
  4  5  1  0  0  0  0
  5  6  1  0  0  0  0
  6  7  1  0  0  0  0
  5  8  1  0  0  0  0
  8  9  1  0  0  0  0
  9 10  1  0  0  0  0
 10 11  1  0  0  0  0
 11 12  1  0  0  0  0
 12 13  1  0  0  0  0
 13 14  1  0  0  0  0
 12 15  1  0  0  0  0
 15 16  1  0  0  0  0
 15 17  1  0  0  0  0
 17 18  1  0  0  0  0
 10 19  1  0  0  0  0
 17 19  1  0  0  0  0
 19 20  1  0  0  0  0
  8 21  1  0  0  0  0
 21 22  1  0  0  0  0
  3 23  1  0  0  0  0
 21 23  1  0  0  0  0
 23 24  1  0  0  0  0
  1 25  1  0  0  0  0
  1 26  1  0  0  0  0
  1 27  1  0  0  0  0
  3 28  1  0  0  0  0
  5 29  1  0  0  0  0
  6 30  1  0  0  0  0
  6 31  1  0  0  0  0
  7 32  1  0  0  0  0
  8 33  1  0  0  0  0
 10 34  1  0  0  0  0
 12 35  1  0  0  0  0
 13 36  1  0  0  0  0
 13 37  1  0  0  0  0
 14 38  1  0  0  0  0
 15 39  1  0  0  0  0
 16 40  1  0  0  0  0
 17 41  1  0  0  0  0
 18 42  1  0  0  0  0
 19 43  1  0  0  0  0
 20 44  1  0  0  0  0
 21 45  1  0  0  0  0
 22 46  1  0  0  0  0
 23 47  1  0  0  0  0
 24 48  1  0  0  0  0
M  END
