 xtb: 6.7.1 (edcfbbe)
          09212615473D

 48 49  0     0  0            999 V2000
    4.1351    1.3387    1.1191 C   0  0  0  0  0  0  0  0  0  0  0  0
    3.5059    0.1379    0.6847 O   0  0  0  0  0  0  0  0  0  0  0  0
    3.6138   -0.0944   -0.6958 C   0  0  0  0  0  0  0  0  0  0  0  0
    2.9476    0.8817   -1.4448 O   0  0  0  0  0  0  0  0  0  0  0  0
    1.6000    0.5869   -1.8124 C   0  0  0  0  0  0  0  0  0  0  0  0
    0.9276    1.9317   -2.1017 C   0  0  0  0  0  0  0  0  0  0  0  0
    1.5185    2.5918   -3.1887 O   0  0  0  0  0  0  0  0  0  0  0  0
    0.8900   -0.1993   -0.7023 C   0  0  0  0  0  0  0  0  0  0  0  0
   -0.4633   -0.4259   -1.1050 O   0  0  0  0  0  0  0  0  0  0  0  0
   -1.5120   -0.1350   -0.2454 C   0  0  0  0  0  0  0  0  0  0  0  0
   -1.5142   -1.0593    0.8286 O   0  0  0  0  0  0  0  0  0  0  0  0
   -2.6791   -1.0178    1.6607 C   0  0  0  0  0  0  0  0  0  0  0  0
   -3.3757   -2.3886    1.6097 C   0  0  0  0  0  0  0  0  0  0  0  0
   -2.6441   -3.3847    2.2732 O   0  0  0  0  0  0  0  0  0  0  0  0
   -3.6779    0.0915    1.2858 C   0  0  0  0  0  0  0  0  0  0  0  0
   -4.6745    0.2234    2.2649 O   0  0  0  0  0  0  0  0  0  0  0  0
   -2.9883    1.4455    0.9934 C   0  0  0  0  0  0  0  0  0  0  0  0
   -3.7509    2.2057    0.0906 O   0  0  0  0  0  0  0  0  0  0  0  0
   -1.5797    1.2707    0.3791 C   0  0  0  0  0  0  0  0  0  0  0  0
   -0.5803    1.4685    1.3459 O   0  0  0  0  0  0  0  0  0  0  0  0
    1.5977   -1.5532   -0.4629 C   0  0  0  0  0  0  0  0  0  0  0  0
    1.5303   -1.9573    0.8778 O   0  0  0  0  0  0  0  0  0  0  0  0
    3.0679   -1.5053   -0.9435 C   0  0  0  0  0  0  0  0  0  0  0  0
    3.2328   -1.8012   -2.3031 O   0  0  0  0  0  0  0  0  0  0  0  0
    3.6753    2.2064    0.6430 H   0  0  0  0  0  0  0  0  0  0  0  0
    5.2014    1.3124    0.8800 H   0  0  0  0  0  0  0  0  0  0  0  0
    3.9898    1.3770    2.1944 H   0  0  0  0  0  0  0  0  0  0  0  0
    4.6685   -0.0264   -1.0103 H   0  0  0  0  0  0  0  0  0  0  0  0
    1.6053   -0.0144   -2.7320 H   0  0  0  0  0  0  0  0  0  0  0  0
    0.9731    2.5548   -1.1977 H   0  0  0  0  0  0  0  0  0  0  0  0
   -0.1141    1.7571   -2.3752 H   0  0  0  0  0  0  0  0  0  0  0  0
    2.4734    2.6405   -3.0337 H   0  0  0  0  0  0  0  0  0  0  0  0
    0.9286    0.3926    0.2158 H   0  0  0  0  0  0  0  0  0  0  0  0
   -2.3931   -0.2773   -0.8885 H   0  0  0  0  0  0  0  0  0  0  0  0
   -2.3275   -0.8597    2.6904 H   0  0  0  0  0  0  0  0  0  0  0  0
   -3.5428   -2.6588    0.5587 H   0  0  0  0  0  0  0  0  0  0  0  0
   -4.3380   -2.3204    2.1213 H   0  0  0  0  0  0  0  0  0  0  0  0
   -1.7658   -3.4452    1.8708 H   0  0  0  0  0  0  0  0  0  0  0  0
   -4.2198   -0.2100    0.3819 H   0  0  0  0  0  0  0  0  0  0  0  0
   -4.2809    0.4547    3.1202 H   0  0  0  0  0  0  0  0  0  0  0  0
   -2.8609    1.9972    1.9387 H   0  0  0  0  0  0  0  0  0  0  0  0
   -4.6385    2.3454    0.4552 H   0  0  0  0  0  0  0  0  0  0  0  0
   -1.4439    2.0411   -0.3827 H   0  0  0  0  0  0  0  0  0  0  0  0
   -0.5587    0.6913    1.9283 H   0  0  0  0  0  0  0  0  0  0  0  0
    1.0519   -2.3109   -1.0350 H   0  0  0  0  0  0  0  0  0  0  0  0
    2.0860   -1.3611    1.4046 H   0  0  0  0  0  0  0  0  0  0  0  0
    3.6462   -2.1967   -0.3148 H   0  0  0  0  0  0  0  0  0  0  0  0
    3.0578   -2.7416   -2.4580 H   0  0  0  0  0  0  0  0  0  0  0  0
  1  2  1  0  0  0  0
  2  3  1  0  0  0  0
  3  4  1  0  0  0  0
  4  5  1  0  0  0  0
  5  6  1  0  0  0  0
  6  7  1  0  0  0  0
  5  8  1  0  0  0  0
  8  9  1  0  0  0  0
  9 10  1  0  0  0  0
 10 11  1  0  0  0  0
 11 12  1  0  0  0  0
 12 13  1  0  0  0  0
 13 14  1  0  0  0  0
 12 15  1  0  0  0  0
 15 16  1  0  0  0  0
 15 17  1  0  0  0  0
 17 18  1  0  0  0  0
 10 19  1  0  0  0  0
 17 19  1  0  0  0  0
 19 20  1  0  0  0  0
  8 21  1  0  0  0  0
 21 22  1  0  0  0  0
  3 23  1  0  0  0  0
 21 23  1  0  0  0  0
 23 24  1  0  0  0  0
  1 25  1  0  0  0  0
  1 26  1  0  0  0  0
  1 27  1  0  0  0  0
  3 28  1  0  0  0  0
  5 29  1  0  0  0  0
  6 30  1  0  0  0  0
  6 31  1  0  0  0  0
  7 32  1  0  0  0  0
  8 33  1  0  0  0  0
 10 34  1  0  0  0  0
 12 35  1  0  0  0  0
 13 36  1  0  0  0  0
 13 37  1  0  0  0  0
 14 38  1  0  0  0  0
 15 39  1  0  0  0  0
 16 40  1  0  0  0  0
 17 41  1  0  0  0  0
 18 42  1  0  0  0  0
 19 43  1  0  0  0  0
 20 44  1  0  0  0  0
 21 45  1  0  0  0  0
 22 46  1  0  0  0  0
 23 47  1  0  0  0  0
 24 48  1  0  0  0  0
M  END
