 xtb: 6.7.1 (edcfbbe)
          09222613133D

 48 49  0     0  0            999 V2000
    5.5425   -1.0342    0.4985 C   0  0  0  0  0  0  0  0  0  0  0  0
    4.8279    0.0937    0.9892 O   0  0  0  0  0  0  0  0  0  0  0  0
    3.4536   -0.0546    1.0193 C   0  0  0  0  0  0  0  0  0  0  0  0
    2.9465   -0.1143   -0.2945 O   0  0  0  0  0  0  0  0  0  0  0  0
    1.5507   -0.3351   -0.3540 C   0  0  0  0  0  0  0  0  0  0  0  0
    1.1938   -0.3584   -1.8466 C   0  0  0  0  0  0  0  0  0  0  0  0
    1.6264   -1.5328   -2.4745 O   0  0  0  0  0  0  0  0  0  0  0  0
    0.7476    0.7329    0.4121 C   0  0  0  0  0  0  0  0  0  0  0  0
   -0.5679    0.2362    0.6219 O   0  0  0  0  0  0  0  0  0  0  0  0
   -1.6334    1.0805    0.2910 C   0  0  0  0  0  0  0  0  0  0  0  0
   -2.0542    0.9255   -1.0368 O   0  0  0  0  0  0  0  0  0  0  0  0
   -2.5706   -0.3662   -1.3597 C   0  0  0  0  0  0  0  0  0  0  0  0
   -3.0354   -0.2934   -2.8215 C   0  0  0  0  0  0  0  0  0  0  0  0
   -1.9893    0.0142   -3.7012 O   0  0  0  0  0  0  0  0  0  0  0  0
   -3.7264   -0.7754   -0.4352 C   0  0  0  0  0  0  0  0  0  0  0  0
   -4.1822   -2.0768   -0.6991 O   0  0  0  0  0  0  0  0  0  0  0  0
   -3.2967   -0.6261    1.0312 C   0  0  0  0  0  0  0  0  0  0  0  0
   -4.3706   -0.8648    1.9098 O   0  0  0  0  0  0  0  0  0  0  0  0
   -2.7992    0.8037    1.2577 C   0  0  0  0  0  0  0  0  0  0  0  0
   -2.3733    1.0167    2.5713 O   0  0  0  0  0  0  0  0  0  0  0  0
    1.3502    1.0903    1.7800 C   0  0  0  0  0  0  0  0  0  0  0  0
    0.8002    2.3264    2.1581 O   0  0  0  0  0  0  0  0  0  0  0  0
    2.8808    1.1704    1.7422 C   0  0  0  0  0  0  0  0  0  0  0  0
    3.3360    1.2472    3.0674 O   0  0  0  0  0  0  0  0  0  0  0  0
    5.3078   -1.2142   -0.5514 H   0  0  0  0  0  0  0  0  0  0  0  0
    5.3025   -1.9245    1.0878 H   0  0  0  0  0  0  0  0  0  0  0  0
    6.5940   -0.7830    0.6086 H   0  0  0  0  0  0  0  0  0  0  0  0
    3.1641   -0.9803    1.5644 H   0  0  0  0  0  0  0  0  0  0  0  0
    1.3138   -1.3134    0.0974 H   0  0  0  0  0  0  0  0  0  0  0  0
    1.6393    0.5287   -2.3141 H   0  0  0  0  0  0  0  0  0  0  0  0
    0.1129   -0.3235   -1.9732 H   0  0  0  0  0  0  0  0  0  0  0  0
    2.5902   -1.5705   -2.4239 H   0  0  0  0  0  0  0  0  0  0  0  0
    0.7142    1.6543   -0.1840 H   0  0  0  0  0  0  0  0  0  0  0  0
   -1.3343    2.1325    0.3838 H   0  0  0  0  0  0  0  0  0  0  0  0
   -1.7641   -1.1095   -1.2624 H   0  0  0  0  0  0  0  0  0  0  0  0
   -3.8371    0.4529   -2.8915 H   0  0  0  0  0  0  0  0  0  0  0  0
   -3.4251   -1.2668   -3.1239 H   0  0  0  0  0  0  0  0  0  0  0  0
   -1.6474    0.8859   -3.4640 H   0  0  0  0  0  0  0  0  0  0  0  0
   -4.5891   -0.1227   -0.6137 H   0  0  0  0  0  0  0  0  0  0  0  0
   -3.4443   -2.7004   -0.6436 H   0  0  0  0  0  0  0  0  0  0  0  0
   -2.4669   -1.3187    1.2490 H   0  0  0  0  0  0  0  0  0  0  0  0
   -4.8751   -1.6203    1.5756 H   0  0  0  0  0  0  0  0  0  0  0  0
   -3.6154    1.5001    1.0000 H   0  0  0  0  0  0  0  0  0  0  0  0
   -3.0511    0.6480    3.1574 H   0  0  0  0  0  0  0  0  0  0  0  0
    1.0619    0.3056    2.4957 H   0  0  0  0  0  0  0  0  0  0  0  0
    1.1084    2.5358    3.0502 H   0  0  0  0  0  0  0  0  0  0  0  0
    3.1806    2.0620    1.1703 H   0  0  0  0  0  0  0  0  0  0  0  0
    4.3034    1.2361    3.0624 H   0  0  0  0  0  0  0  0  0  0  0  0
  1  2  1  0  0  0  0
  2  3  1  0  0  0  0
  3  4  1  0  0  0  0
  4  5  1  0  0  0  0
  5  6  1  0  0  0  0
  6  7  1  0  0  0  0
  5  8  1  0  0  0  0
  8  9  1  0  0  0  0
  9 10  1  0  0  0  0
 10 11  1  0  0  0  0
 11 12  1  0  0  0  0
 12 13  1  0  0  0  0
 13 14  1  0  0  0  0
 12 15  1  0  0  0  0
 15 16  1  0  0  0  0
 15 17  1  0  0  0  0
 17 18  1  0  0  0  0
 10 19  1  0  0  0  0
 17 19  1  0  0  0  0
 19 20  1  0  0  0  0
  8 21  1  0  0  0  0
 21 22  1  0  0  0  0
  3 23  1  0  0  0  0
 21 23  1  0  0  0  0
 23 24  1  0  0  0  0
  1 25  1  0  0  0  0
  1 26  1  0  0  0  0
  1 27  1  0  0  0  0
  3 28  1  0  0  0  0
  5 29  1  0  0  0  0
  6 30  1  0  0  0  0
  6 31  1  0  0  0  0
  7 32  1  0  0  0  0
  8 33  1  0  0  0  0
 10 34  1  0  0  0  0
 12 35  1  0  0  0  0
 13 36  1  0  0  0  0
 13 37  1  0  0  0  0
 14 38  1  0  0  0  0
 15 39  1  0  0  0  0
 16 40  1  0  0  0  0
 17 41  1  0  0  0  0
 18 42  1  0  0  0  0
 19 43  1  0  0  0  0
 20 44  1  0  0  0  0
 21 45  1  0  0  0  0
 22 46  1  0  0  0  0
 23 47  1  0  0  0  0
 24 48  1  0  0  0  0
M  END
