 xtb: 6.7.1 (edcfbbe)
          09222613233D

 48 49  0     0  0            999 V2000
    5.9739   -0.1994   -0.4554 C   0  0  0  0  0  0  0  0  0  0  0  0
    4.8362    0.4559   -0.9840 O   0  0  0  0  0  0  0  0  0  0  0  0
    3.8213    0.6455   -0.0718 C   0  0  0  0  0  0  0  0  0  0  0  0
    3.2690   -0.6170    0.2552 O   0  0  0  0  0  0  0  0  0  0  0  0
    2.1853   -0.5447    1.1445 C   0  0  0  0  0  0  0  0  0  0  0  0
    1.8104   -1.9698    1.5688 C   0  0  0  0  0  0  0  0  0  0  0  0
    1.0926   -1.9841    2.7748 O   0  0  0  0  0  0  0  0  0  0  0  0
    1.0155    0.1929    0.4659 C   0  0  0  0  0  0  0  0  0  0  0  0
   -0.0943    0.2605    1.3763 O   0  0  0  0  0  0  0  0  0  0  0  0
   -1.3596   -0.1157    0.9569 C   0  0  0  0  0  0  0  0  0  0  0  0
   -1.7406    0.7209   -0.1310 O   0  0  0  0  0  0  0  0  0  0  0  0
   -3.0144    0.4722   -0.7083 C   0  0  0  0  0  0  0  0  0  0  0  0
   -3.7361    1.8300   -0.8317 C   0  0  0  0  0  0  0  0  0  0  0  0
   -4.9437    1.7311   -1.5468 O   0  0  0  0  0  0  0  0  0  0  0  0
   -3.8661   -0.5238    0.0966 C   0  0  0  0  0  0  0  0  0  0  0  0
   -5.0150   -0.8911   -0.6208 O   0  0  0  0  0  0  0  0  0  0  0  0
   -3.0931   -1.8210    0.4226 C   0  0  0  0  0  0  0  0  0  0  0  0
   -3.5349   -2.3610    1.6390 O   0  0  0  0  0  0  0  0  0  0  0  0
   -1.5723   -1.5852    0.5452 C   0  0  0  0  0  0  0  0  0  0  0  0
   -0.8886   -1.9264   -0.6295 O   0  0  0  0  0  0  0  0  0  0  0  0
    1.4698    1.6084    0.0933 C   0  0  0  0  0  0  0  0  0  0  0  0
    0.5266    2.2947   -0.6971 O   0  0  0  0  0  0  0  0  0  0  0  0
    2.7783    1.5694   -0.7145 C   0  0  0  0  0  0  0  0  0  0  0  0
    3.3311    2.8540   -0.7934 O   0  0  0  0  0  0  0  0  0  0  0  0
    5.7204   -1.2049   -0.1114 H   0  0  0  0  0  0  0  0  0  0  0  0
    6.3989    0.3738    0.3761 H   0  0  0  0  0  0  0  0  0  0  0  0
    6.6912   -0.2537   -1.2706 H   0  0  0  0  0  0  0  0  0  0  0  0
    4.1980    1.1277    0.8560 H   0  0  0  0  0  0  0  0  0  0  0  0
    2.4745    0.0218    2.0475 H   0  0  0  0  0  0  0  0  0  0  0  0
    2.7285   -2.5354    1.7414 H   0  0  0  0  0  0  0  0  0  0  0  0
    1.2477   -2.4546    0.7602 H   0  0  0  0  0  0  0  0  0  0  0  0
    0.4219   -1.2903    2.7307 H   0  0  0  0  0  0  0  0  0  0  0  0
    0.7439   -0.3512   -0.4416 H   0  0  0  0  0  0  0  0  0  0  0  0
   -1.9879    0.0856    1.8387 H   0  0  0  0  0  0  0  0  0  0  0  0
   -2.8734    0.0580   -1.7225 H   0  0  0  0  0  0  0  0  0  0  0  0
   -3.0500    2.5504   -1.2909 H   0  0  0  0  0  0  0  0  0  0  0  0
   -3.9998    2.1915    0.1653 H   0  0  0  0  0  0  0  0  0  0  0  0
   -4.7542    1.6097   -2.4845 H   0  0  0  0  0  0  0  0  0  0  0  0
   -4.1491   -0.0486    1.0510 H   0  0  0  0  0  0  0  0  0  0  0  0
   -5.4801   -0.0805   -0.8850 H   0  0  0  0  0  0  0  0  0  0  0  0
   -3.2637   -2.5287   -0.4032 H   0  0  0  0  0  0  0  0  0  0  0  0
   -4.4704   -2.5807    1.5537 H   0  0  0  0  0  0  0  0  0  0  0  0
   -1.1968   -2.2522    1.3258 H   0  0  0  0  0  0  0  0  0  0  0  0
   -1.1501   -1.3277   -1.3403 H   0  0  0  0  0  0  0  0  0  0  0  0
    1.6465    2.1685    1.0272 H   0  0  0  0  0  0  0  0  0  0  0  0
   -0.3580    2.0163   -0.4174 H   0  0  0  0  0  0  0  0  0  0  0  0
    2.5604    1.1755   -1.7184 H   0  0  0  0  0  0  0  0  0  0  0  0
    2.6503    3.4332   -1.1594 H   0  0  0  0  0  0  0  0  0  0  0  0
  1  2  1  0  0  0  0
  2  3  1  0  0  0  0
  3  4  1  0  0  0  0
  4  5  1  0  0  0  0
  5  6  1  0  0  0  0
  6  7  1  0  0  0  0
  5  8  1  0  0  0  0
  8  9  1  0  0  0  0
  9 10  1  0  0  0  0
 10 11  1  0  0  0  0
 11 12  1  0  0  0  0
 12 13  1  0  0  0  0
 13 14  1  0  0  0  0
 12 15  1  0  0  0  0
 15 16  1  0  0  0  0
 15 17  1  0  0  0  0
 17 18  1  0  0  0  0
 10 19  1  0  0  0  0
 17 19  1  0  0  0  0
 19 20  1  0  0  0  0
  8 21  1  0  0  0  0
 21 22  1  0  0  0  0
  3 23  1  0  0  0  0
 21 23  1  0  0  0  0
 23 24  1  0  0  0  0
  1 25  1  0  0  0  0
  1 26  1  0  0  0  0
  1 27  1  0  0  0  0
  3 28  1  0  0  0  0
  5 29  1  0  0  0  0
  6 30  1  0  0  0  0
  6 31  1  0  0  0  0
  7 32  1  0  0  0  0
  8 33  1  0  0  0  0
 10 34  1  0  0  0  0
 12 35  1  0  0  0  0
 13 36  1  0  0  0  0
 13 37  1  0  0  0  0
 14 38  1  0  0  0  0
 15 39  1  0  0  0  0
 16 40  1  0  0  0  0
 17 41  1  0  0  0  0
 18 42  1  0  0  0  0
 19 43  1  0  0  0  0
 20 44  1  0  0  0  0
 21 45  1  0  0  0  0
 22 46  1  0  0  0  0
 23 47  1  0  0  0  0
 24 48  1  0  0  0  0
M  END
