 xtb: 6.7.1 (edcfbbe)
          09212615473D

 48 49  0     0  0            999 V2000
    5.5664    1.6636   -0.9074 C   0  0  0  0  0  0  0  0  0  0  0  0
    4.7804    0.7027   -0.2101 O   0  0  0  0  0  0  0  0  0  0  0  0
    3.5615    0.4163   -0.7923 C   0  0  0  0  0  0  0  0  0  0  0  0
    2.6957    1.5160   -0.5931 O   0  0  0  0  0  0  0  0  0  0  0  0
    1.3977    1.3177   -1.1234 C   0  0  0  0  0  0  0  0  0  0  0  0
    0.6355    2.6389   -0.9775 C   0  0  0  0  0  0  0  0  0  0  0  0
    1.1867    3.6514   -1.7762 O   0  0  0  0  0  0  0  0  0  0  0  0
    0.7052    0.1484   -0.4037 C   0  0  0  0  0  0  0  0  0  0  0  0
   -0.5674   -0.0816   -1.0008 O   0  0  0  0  0  0  0  0  0  0  0  0
   -1.6886   -0.2037   -0.1832 C   0  0  0  0  0  0  0  0  0  0  0  0
   -1.3841   -0.9597    0.9696 O   0  0  0  0  0  0  0  0  0  0  0  0
   -2.5301   -1.5913    1.5347 C   0  0  0  0  0  0  0  0  0  0  0  0
   -2.6389   -3.0366    1.0115 C   0  0  0  0  0  0  0  0  0  0  0  0
   -1.4764   -3.7782    1.2718 O   0  0  0  0  0  0  0  0  0  0  0  0
   -3.8349   -0.8141    1.2643 C   0  0  0  0  0  0  0  0  0  0  0  0
   -4.8092   -1.0870    2.2372 O   0  0  0  0  0  0  0  0  0  0  0  0
   -3.6226    0.7137    1.1104 C   0  0  0  0  0  0  0  0  0  0  0  0
   -4.7069    1.2782    0.4169 O   0  0  0  0  0  0  0  0  0  0  0  0
   -2.3269    1.0972    0.3477 C   0  0  0  0  0  0  0  0  0  0  0  0
   -1.4417    1.8032    1.1768 O   0  0  0  0  0  0  0  0  0  0  0  0
    1.5577   -1.1253   -0.5177 C   0  0  0  0  0  0  0  0  0  0  0  0
    1.0455   -2.1892    0.2471 O   0  0  0  0  0  0  0  0  0  0  0  0
    3.0204   -0.8540   -0.1232 C   0  0  0  0  0  0  0  0  0  0  0  0
    3.8454   -1.9179   -0.5157 O   0  0  0  0  0  0  0  0  0  0  0  0
    5.0683    2.6340   -0.9175 H   0  0  0  0  0  0  0  0  0  0  0  0
    5.7524    1.3308   -1.9322 H   0  0  0  0  0  0  0  0  0  0  0  0
    6.5002    1.7247   -0.3564 H   0  0  0  0  0  0  0  0  0  0  0  0
    3.6712    0.2278   -1.8804 H   0  0  0  0  0  0  0  0  0  0  0  0
    1.4722    1.0695   -2.1946 H   0  0  0  0  0  0  0  0  0  0  0  0
    0.6185    2.9321    0.0776 H   0  0  0  0  0  0  0  0  0  0  0  0
   -0.3867    2.4934   -1.3265 H   0  0  0  0  0  0  0  0  0  0  0  0
    2.0977    3.8052   -1.4885 H   0  0  0  0  0  0  0  0  0  0  0  0
    0.5901    0.4113    0.6517 H   0  0  0  0  0  0  0  0  0  0  0  0
   -2.4127   -0.7179   -0.8292 H   0  0  0  0  0  0  0  0  0  0  0  0
   -2.3249   -1.6291    2.6105 H   0  0  0  0  0  0  0  0  0  0  0  0
   -2.8529   -3.0174   -0.0651 H   0  0  0  0  0  0  0  0  0  0  0  0
   -3.4572   -3.5417    1.5273 H   0  0  0  0  0  0  0  0  0  0  0  0
   -0.7346   -3.3819    0.7845 H   0  0  0  0  0  0  0  0  0  0  0  0
   -4.2801   -1.1736    0.3291 H   0  0  0  0  0  0  0  0  0  0  0  0
   -4.4887   -0.8400    3.1181 H   0  0  0  0  0  0  0  0  0  0  0  0
   -3.5527    1.1638    2.1145 H   0  0  0  0  0  0  0  0  0  0  0  0
   -5.5346    1.0277    0.8565 H   0  0  0  0  0  0  0  0  0  0  0  0
   -2.5924    1.7691   -0.4706 H   0  0  0  0  0  0  0  0  0  0  0  0
   -1.1720    1.2212    1.9054 H   0  0  0  0  0  0  0  0  0  0  0  0
    1.5259   -1.4726   -1.5563 H   0  0  0  0  0  0  0  0  0  0  0  0
    0.9647   -1.9057    1.1711 H   0  0  0  0  0  0  0  0  0  0  0  0
    3.0886   -0.6933    0.9645 H   0  0  0  0  0  0  0  0  0  0  0  0
    3.4695   -2.7457   -0.1737 H   0  0  0  0  0  0  0  0  0  0  0  0
  1  2  1  0  0  0  0
  2  3  1  0  0  0  0
  3  4  1  0  0  0  0
  4  5  1  0  0  0  0
  5  6  1  0  0  0  0
  6  7  1  0  0  0  0
  5  8  1  0  0  0  0
  8  9  1  0  0  0  0
  9 10  1  0  0  0  0
 10 11  1  0  0  0  0
 11 12  1  0  0  0  0
 12 13  1  0  0  0  0
 13 14  1  0  0  0  0
 12 15  1  0  0  0  0
 15 16  1  0  0  0  0
 15 17  1  0  0  0  0
 17 18  1  0  0  0  0
 10 19  1  0  0  0  0
 17 19  1  0  0  0  0
 19 20  1  0  0  0  0
  8 21  1  0  0  0  0
 21 22  1  0  0  0  0
  3 23  1  0  0  0  0
 21 23  1  0  0  0  0
 23 24  1  0  0  0  0
  1 25  1  0  0  0  0
  1 26  1  0  0  0  0
  1 27  1  0  0  0  0
  3 28  1  0  0  0  0
  5 29  1  0  0  0  0
  6 30  1  0  0  0  0
  6 31  1  0  0  0  0
  7 32  1  0  0  0  0
  8 33  1  0  0  0  0
 10 34  1  0  0  0  0
 12 35  1  0  0  0  0
 13 36  1  0  0  0  0
 13 37  1  0  0  0  0
 14 38  1  0  0  0  0
 15 39  1  0  0  0  0
 16 40  1  0  0  0  0
 17 41  1  0  0  0  0
 18 42  1  0  0  0  0
 19 43  1  0  0  0  0
 20 44  1  0  0  0  0
 21 45  1  0  0  0  0
 22 46  1  0  0  0  0
 23 47  1  0  0  0  0
 24 48  1  0  0  0  0
M  END
