 xtb: 6.7.1 (edcfbbe)
          09222613243D

 48 49  0     0  0            999 V2000
    5.9703   -0.4030   -0.6127 C   0  0  0  0  0  0  0  0  0  0  0  0
    4.8209    0.2415   -1.1286 O   0  0  0  0  0  0  0  0  0  0  0  0
    3.8513    0.5104   -0.1873 C   0  0  0  0  0  0  0  0  0  0  0  0
    3.3034   -0.7201    0.2522 O   0  0  0  0  0  0  0  0  0  0  0  0
    2.2374   -0.5868    1.1573 C   0  0  0  0  0  0  0  0  0  0  0  0
    1.8678   -1.9861    1.6630 C   0  0  0  0  0  0  0  0  0  0  0  0
    1.1027   -1.9410    2.8361 O   0  0  0  0  0  0  0  0  0  0  0  0
    1.0676    0.1132    0.4434 C   0  0  0  0  0  0  0  0  0  0  0  0
   -0.0550    0.2360    1.3332 O   0  0  0  0  0  0  0  0  0  0  0  0
   -1.3208   -0.1488    0.9278 C   0  0  0  0  0  0  0  0  0  0  0  0
   -1.8488    0.9094    0.1228 O   0  0  0  0  0  0  0  0  0  0  0  0
   -3.1438    0.7071   -0.4248 C   0  0  0  0  0  0  0  0  0  0  0  0
   -3.9444    2.0049   -0.1964 C   0  0  0  0  0  0  0  0  0  0  0  0
   -5.1869    1.9900   -0.8561 O   0  0  0  0  0  0  0  0  0  0  0  0
   -3.8785   -0.5003    0.1810 C   0  0  0  0  0  0  0  0  0  0  0  0
   -5.0613   -0.7706   -0.5238 O   0  0  0  0  0  0  0  0  0  0  0  0
   -3.0161   -1.7816    0.1427 C   0  0  0  0  0  0  0  0  0  0  0  0
   -3.3003   -2.6008    1.2448 O   0  0  0  0  0  0  0  0  0  0  0  0
   -1.5029   -1.4743    0.1738 C   0  0  0  0  0  0  0  0  0  0  0  0
   -0.9503   -1.4572   -1.1145 O   0  0  0  0  0  0  0  0  0  0  0  0
    1.5181    1.5053   -0.0096 C   0  0  0  0  0  0  0  0  0  0  0  0
    0.5467    2.1462   -0.8033 O   0  0  0  0  0  0  0  0  0  0  0  0
    2.7979    1.4076   -0.8532 C   0  0  0  0  0  0  0  0  0  0  0  0
    3.3641    2.6777   -1.0225 O   0  0  0  0  0  0  0  0  0  0  0  0
    5.7147   -1.3773   -0.1899 H   0  0  0  0  0  0  0  0  0  0  0  0
    6.4483    0.2144    0.1559 H   0  0  0  0  0  0  0  0  0  0  0  0
    6.6438   -0.5281   -1.4571 H   0  0  0  0  0  0  0  0  0  0  0  0
    4.2748    1.0510    0.6863 H   0  0  0  0  0  0  0  0  0  0  0  0
    2.5449    0.0280    2.0213 H   0  0  0  0  0  0  0  0  0  0  0  0
    2.7870   -2.5236    1.9056 H   0  0  0  0  0  0  0  0  0  0  0  0
    1.3491   -2.5325    0.8628 H   0  0  0  0  0  0  0  0  0  0  0  0
    0.4146   -1.2730    2.7206 H   0  0  0  0  0  0  0  0  0  0  0  0
    0.8090   -0.4834   -0.4348 H   0  0  0  0  0  0  0  0  0  0  0  0
   -1.8866   -0.2120    1.8707 H   0  0  0  0  0  0  0  0  0  0  0  0
   -3.0568    0.5392   -1.5133 H   0  0  0  0  0  0  0  0  0  0  0  0
   -3.3281    2.8547   -0.5103 H   0  0  0  0  0  0  0  0  0  0  0  0
   -4.1642    2.1132    0.8684 H   0  0  0  0  0  0  0  0  0  0  0  0
   -5.0482    2.0844   -1.8058 H   0  0  0  0  0  0  0  0  0  0  0  0
   -4.1069   -0.2750    1.2366 H   0  0  0  0  0  0  0  0  0  0  0  0
   -5.5795    0.0491   -0.5743 H   0  0  0  0  0  0  0  0  0  0  0  0
   -3.2346   -2.3036   -0.8012 H   0  0  0  0  0  0  0  0  0  0  0  0
   -4.2267   -2.8655    1.1978 H   0  0  0  0  0  0  0  0  0  0  0  0
   -1.0144   -2.2882    0.7161 H   0  0  0  0  0  0  0  0  0  0  0  0
   -1.2153   -0.6475   -1.5691 H   0  0  0  0  0  0  0  0  0  0  0  0
    1.7271    2.1127    0.8872 H   0  0  0  0  0  0  0  0  0  0  0  0
   -0.3206    1.9838   -0.3996 H   0  0  0  0  0  0  0  0  0  0  0  0
    2.5458    0.9583   -1.8250 H   0  0  0  0  0  0  0  0  0  0  0  0
    2.6835    3.2423   -1.4105 H   0  0  0  0  0  0  0  0  0  0  0  0
  1  2  1  0  0  0  0
  2  3  1  0  0  0  0
  3  4  1  0  0  0  0
  4  5  1  0  0  0  0
  5  6  1  0  0  0  0
  6  7  1  0  0  0  0
  5  8  1  0  0  0  0
  8  9  1  0  0  0  0
  9 10  1  0  0  0  0
 10 11  1  0  0  0  0
 11 12  1  0  0  0  0
 12 13  1  0  0  0  0
 13 14  1  0  0  0  0
 12 15  1  0  0  0  0
 15 16  1  0  0  0  0
 15 17  1  0  0  0  0
 17 18  1  0  0  0  0
 10 19  1  0  0  0  0
 17 19  1  0  0  0  0
 19 20  1  0  0  0  0
  8 21  1  0  0  0  0
 21 22  1  0  0  0  0
  3 23  1  0  0  0  0
 21 23  1  0  0  0  0
 23 24  1  0  0  0  0
  1 25  1  0  0  0  0
  1 26  1  0  0  0  0
  1 27  1  0  0  0  0
  3 28  1  0  0  0  0
  5 29  1  0  0  0  0
  6 30  1  0  0  0  0
  6 31  1  0  0  0  0
  7 32  1  0  0  0  0
  8 33  1  0  0  0  0
 10 34  1  0  0  0  0
 12 35  1  0  0  0  0
 13 36  1  0  0  0  0
 13 37  1  0  0  0  0
 14 38  1  0  0  0  0
 15 39  1  0  0  0  0
 16 40  1  0  0  0  0
 17 41  1  0  0  0  0
 18 42  1  0  0  0  0
 19 43  1  0  0  0  0
 20 44  1  0  0  0  0
 21 45  1  0  0  0  0
 22 46  1  0  0  0  0
 23 47  1  0  0  0  0
 24 48  1  0  0  0  0
M  END
