 xtb: 6.7.1 (edcfbbe)
          09222613113D

 48 49  0     0  0            999 V2000
    5.6796   -0.5648    0.1011 C   0  0  0  0  0  0  0  0  0  0  0  0
    4.8265    0.5192    0.4461 O   0  0  0  0  0  0  0  0  0  0  0  0
    3.5956    0.1520    0.9458 C   0  0  0  0  0  0  0  0  0  0  0  0
    2.7930   -0.3159   -0.1206 O   0  0  0  0  0  0  0  0  0  0  0  0
    1.4949   -0.7171    0.2748 C   0  0  0  0  0  0  0  0  0  0  0  0
    0.8646   -1.3930   -0.9438 C   0  0  0  0  0  0  0  0  0  0  0  0
    1.6278   -2.4774   -1.3914 O   0  0  0  0  0  0  0  0  0  0  0  0
    0.7125    0.4982    0.8050 C   0  0  0  0  0  0  0  0  0  0  0  0
   -0.5811    0.1175    1.2530 O   0  0  0  0  0  0  0  0  0  0  0  0
   -1.6607    0.9047    0.8089 C   0  0  0  0  0  0  0  0  0  0  0  0
   -1.7222    1.1282   -0.5676 O   0  0  0  0  0  0  0  0  0  0  0  0
   -2.2760    0.1179   -1.4102 C   0  0  0  0  0  0  0  0  0  0  0  0
   -2.5502    0.8002   -2.7638 C   0  0  0  0  0  0  0  0  0  0  0  0
   -2.9765   -0.1177   -3.7387 O   0  0  0  0  0  0  0  0  0  0  0  0
   -3.5594   -0.5187   -0.8543 C   0  0  0  0  0  0  0  0  0  0  0  0
   -3.9183   -1.6589   -1.5920 O   0  0  0  0  0  0  0  0  0  0  0  0
   -3.3310   -0.9450    0.5985 C   0  0  0  0  0  0  0  0  0  0  0  0
   -4.4924   -1.4891    1.1722 O   0  0  0  0  0  0  0  0  0  0  0  0
   -2.9505    0.3051    1.3909 C   0  0  0  0  0  0  0  0  0  0  0  0
   -2.7692    0.0514    2.7521 O   0  0  0  0  0  0  0  0  0  0  0  0
    1.4893    1.1466    1.9638 C   0  0  0  0  0  0  0  0  0  0  0  0
    0.9050    2.3501    2.3969 O   0  0  0  0  0  0  0  0  0  0  0  0
    2.9661    1.3865    1.6026 C   0  0  0  0  0  0  0  0  0  0  0  0
    3.7104    1.6875    2.7516 O   0  0  0  0  0  0  0  0  0  0  0  0
    5.2626   -1.1422   -0.7262 H   0  0  0  0  0  0  0  0  0  0  0  0
    5.8367   -1.2187    0.9643 H   0  0  0  0  0  0  0  0  0  0  0  0
    6.6204   -0.1106   -0.1980 H   0  0  0  0  0  0  0  0  0  0  0  0
    3.6906   -0.6486    1.7097 H   0  0  0  0  0  0  0  0  0  0  0  0
    1.5732   -1.4566    1.0895 H   0  0  0  0  0  0  0  0  0  0  0  0
    0.7507   -0.6440   -1.7392 H   0  0  0  0  0  0  0  0  0  0  0  0
   -0.1049   -1.8010   -0.6553 H   0  0  0  0  0  0  0  0  0  0  0  0
    2.5293   -2.1627   -1.5425 H   0  0  0  0  0  0  0  0  0  0  0  0
    0.6116    1.2244   -0.0161 H   0  0  0  0  0  0  0  0  0  0  0  0
   -1.5391    1.9206    1.2267 H   0  0  0  0  0  0  0  0  0  0  0  0
   -1.5533   -0.6957   -1.5543 H   0  0  0  0  0  0  0  0  0  0  0  0
   -1.6508    1.3406   -3.0740 H   0  0  0  0  0  0  0  0  0  0  0  0
   -3.3597    1.5235   -2.6408 H   0  0  0  0  0  0  0  0  0  0  0  0
   -2.2213   -0.6266   -4.0622 H   0  0  0  0  0  0  0  0  0  0  0  0
   -4.3772    0.2211   -0.8695 H   0  0  0  0  0  0  0  0  0  0  0  0
   -3.9872   -1.4023   -2.5278 H   0  0  0  0  0  0  0  0  0  0  0  0
   -2.5047   -1.6714    0.6454 H   0  0  0  0  0  0  0  0  0  0  0  0
   -4.8325   -2.1645    0.5689 H   0  0  0  0  0  0  0  0  0  0  0  0
   -3.7535    1.0505    1.2504 H   0  0  0  0  0  0  0  0  0  0  0  0
   -3.4794   -0.5473    3.0289 H   0  0  0  0  0  0  0  0  0  0  0  0
    1.4323    0.4768    2.8293 H   0  0  0  0  0  0  0  0  0  0  0  0
    0.9079    2.9923    1.6727 H   0  0  0  0  0  0  0  0  0  0  0  0
    3.0366    2.2083    0.8700 H   0  0  0  0  0  0  0  0  0  0  0  0
    3.2338    2.3666    3.2527 H   0  0  0  0  0  0  0  0  0  0  0  0
  1  2  1  0  0  0  0
  2  3  1  0  0  0  0
  3  4  1  0  0  0  0
  4  5  1  0  0  0  0
  5  6  1  0  0  0  0
  6  7  1  0  0  0  0
  5  8  1  0  0  0  0
  8  9  1  0  0  0  0
  9 10  1  0  0  0  0
 10 11  1  0  0  0  0
 11 12  1  0  0  0  0
 12 13  1  0  0  0  0
 13 14  1  0  0  0  0
 12 15  1  0  0  0  0
 15 16  1  0  0  0  0
 15 17  1  0  0  0  0
 17 18  1  0  0  0  0
 10 19  1  0  0  0  0
 17 19  1  0  0  0  0
 19 20  1  0  0  0  0
  8 21  1  0  0  0  0
 21 22  1  0  0  0  0
  3 23  1  0  0  0  0
 21 23  1  0  0  0  0
 23 24  1  0  0  0  0
  1 25  1  0  0  0  0
  1 26  1  0  0  0  0
  1 27  1  0  0  0  0
  3 28  1  0  0  0  0
  5 29  1  0  0  0  0
  6 30  1  0  0  0  0
  6 31  1  0  0  0  0
  7 32  1  0  0  0  0
  8 33  1  0  0  0  0
 10 34  1  0  0  0  0
 12 35  1  0  0  0  0
 13 36  1  0  0  0  0
 13 37  1  0  0  0  0
 14 38  1  0  0  0  0
 15 39  1  0  0  0  0
 16 40  1  0  0  0  0
 17 41  1  0  0  0  0
 18 42  1  0  0  0  0
 19 43  1  0  0  0  0
 20 44  1  0  0  0  0
 21 45  1  0  0  0  0
 22 46  1  0  0  0  0
 23 47  1  0  0  0  0
 24 48  1  0  0  0  0
M  END
