 xtb: 6.7.1 (edcfbbe)
          09222613173D

 48 49  0     0  0            999 V2000
    5.7549   -0.8029   -0.1147 C   0  0  0  0  0  0  0  0  0  0  0  0
    4.9412    0.1805    0.4935 O   0  0  0  0  0  0  0  0  0  0  0  0
    3.6480   -0.2204    0.7491 C   0  0  0  0  0  0  0  0  0  0  0  0
    2.9617   -0.3142   -0.4861 O   0  0  0  0  0  0  0  0  0  0  0  0
    1.5886   -0.6277   -0.3866 C   0  0  0  0  0  0  0  0  0  0  0  0
    1.0893   -0.7725   -1.8299 C   0  0  0  0  0  0  0  0  0  0  0  0
    1.7830   -1.7807   -2.5056 O   0  0  0  0  0  0  0  0  0  0  0  0
    0.8608    0.4774    0.3891 C   0  0  0  0  0  0  0  0  0  0  0  0
   -0.5176    0.1719    0.5467 O   0  0  0  0  0  0  0  0  0  0  0  0
   -1.4396    1.1654    0.2019 C   0  0  0  0  0  0  0  0  0  0  0  0
   -1.9987    0.9510   -1.0625 O   0  0  0  0  0  0  0  0  0  0  0  0
   -2.7506   -0.2542   -1.1774 C   0  0  0  0  0  0  0  0  0  0  0  0
   -3.2818   -0.3037   -2.6150 C   0  0  0  0  0  0  0  0  0  0  0  0
   -2.2587   -0.4977   -3.5465 O   0  0  0  0  0  0  0  0  0  0  0  0
   -3.8878   -0.3040   -0.1477 C   0  0  0  0  0  0  0  0  0  0  0  0
   -4.6225   -1.5001   -0.2107 O   0  0  0  0  0  0  0  0  0  0  0  0
   -3.3079   -0.0987    1.2590 C   0  0  0  0  0  0  0  0  0  0  0  0
   -4.3226   -0.0433    2.2336 O   0  0  0  0  0  0  0  0  0  0  0  0
   -2.5317    1.2170    1.2847 C   0  0  0  0  0  0  0  0  0  0  0  0
   -1.9227    1.4432    2.5280 O   0  0  0  0  0  0  0  0  0  0  0  0
    1.4926    0.6056    1.7842 C   0  0  0  0  0  0  0  0  0  0  0  0
    0.9720    1.6911    2.5067 O   0  0  0  0  0  0  0  0  0  0  0  0
    3.0083    0.8202    1.6768 C   0  0  0  0  0  0  0  0  0  0  0  0
    3.6039    0.6971    2.9378 O   0  0  0  0  0  0  0  0  0  0  0  0
    5.3819   -1.0674   -1.1079 H   0  0  0  0  0  0  0  0  0  0  0  0
    5.8055   -1.7043    0.5059 H   0  0  0  0  0  0  0  0  0  0  0  0
    6.7437   -0.3586   -0.1995 H   0  0  0  0  0  0  0  0  0  0  0  0
    3.6234   -1.2092    1.2544 H   0  0  0  0  0  0  0  0  0  0  0  0
    1.4598   -1.5837    0.1467 H   0  0  0  0  0  0  0  0  0  0  0  0
    1.2121    0.1953   -2.3370 H   0  0  0  0  0  0  0  0  0  0  0  0
    0.0371   -1.0555   -1.8405 H   0  0  0  0  0  0  0  0  0  0  0  0
    2.7247   -1.5960   -2.4006 H   0  0  0  0  0  0  0  0  0  0  0  0
    0.9840    1.4250   -0.1498 H   0  0  0  0  0  0  0  0  0  0  0  0
   -0.9536    2.1476    0.1338 H   0  0  0  0  0  0  0  0  0  0  0  0
   -2.0824   -1.1132   -1.0037 H   0  0  0  0  0  0  0  0  0  0  0  0
   -3.8268    0.6297   -2.8105 H   0  0  0  0  0  0  0  0  0  0  0  0
   -3.9668   -1.1474   -2.7209 H   0  0  0  0  0  0  0  0  0  0  0  0
   -1.6172    0.2148   -3.4403 H   0  0  0  0  0  0  0  0  0  0  0  0
   -4.6110    0.4936   -0.3542 H   0  0  0  0  0  0  0  0  0  0  0  0
   -4.0139   -2.2492   -0.1767 H   0  0  0  0  0  0  0  0  0  0  0  0
   -2.6089   -0.9205    1.4904 H   0  0  0  0  0  0  0  0  0  0  0  0
   -5.0196   -0.6563    1.9651 H   0  0  0  0  0  0  0  0  0  0  0  0
   -3.2234    2.0393    1.0436 H   0  0  0  0  0  0  0  0  0  0  0  0
   -2.5752    1.2231    3.2065 H   0  0  0  0  0  0  0  0  0  0  0  0
    1.3075   -0.3364    2.3272 H   0  0  0  0  0  0  0  0  0  0  0  0
    0.0070    1.5928    2.5717 H   0  0  0  0  0  0  0  0  0  0  0  0
    3.1977    1.8156    1.2491 H   0  0  0  0  0  0  0  0  0  0  0  0
    3.1526    1.3205    3.5220 H   0  0  0  0  0  0  0  0  0  0  0  0
  1  2  1  0  0  0  0
  2  3  1  0  0  0  0
  3  4  1  0  0  0  0
  4  5  1  0  0  0  0
  5  6  1  0  0  0  0
  6  7  1  0  0  0  0
  5  8  1  0  0  0  0
  8  9  1  0  0  0  0
  9 10  1  0  0  0  0
 10 11  1  0  0  0  0
 11 12  1  0  0  0  0
 12 13  1  0  0  0  0
 13 14  1  0  0  0  0
 12 15  1  0  0  0  0
 15 16  1  0  0  0  0
 15 17  1  0  0  0  0
 17 18  1  0  0  0  0
 10 19  1  0  0  0  0
 17 19  1  0  0  0  0
 19 20  1  0  0  0  0
  8 21  1  0  0  0  0
 21 22  1  0  0  0  0
  3 23  1  0  0  0  0
 21 23  1  0  0  0  0
 23 24  1  0  0  0  0
  1 25  1  0  0  0  0
  1 26  1  0  0  0  0
  1 27  1  0  0  0  0
  3 28  1  0  0  0  0
  5 29  1  0  0  0  0
  6 30  1  0  0  0  0
  6 31  1  0  0  0  0
  7 32  1  0  0  0  0
  8 33  1  0  0  0  0
 10 34  1  0  0  0  0
 12 35  1  0  0  0  0
 13 36  1  0  0  0  0
 13 37  1  0  0  0  0
 14 38  1  0  0  0  0
 15 39  1  0  0  0  0
 16 40  1  0  0  0  0
 17 41  1  0  0  0  0
 18 42  1  0  0  0  0
 19 43  1  0  0  0  0
 20 44  1  0  0  0  0
 21 45  1  0  0  0  0
 22 46  1  0  0  0  0
 23 47  1  0  0  0  0
 24 48  1  0  0  0  0
M  END
