 xtb: 6.7.1 (edcfbbe)
          09222613123D

 48 49  0     0  0            999 V2000
    5.5494   -1.2233    0.5028 C   0  0  0  0  0  0  0  0  0  0  0  0
    4.8839   -0.0255    0.8818 O   0  0  0  0  0  0  0  0  0  0  0  0
    3.5188   -0.1488    1.0351 C   0  0  0  0  0  0  0  0  0  0  0  0
    2.9317   -0.2923   -0.2415 O   0  0  0  0  0  0  0  0  0  0  0  0
    1.5291   -0.4689   -0.2433 C   0  0  0  0  0  0  0  0  0  0  0  0
    1.1415   -0.6216   -1.7235 C   0  0  0  0  0  0  0  0  0  0  0  0
    1.2884   -1.9374   -2.1811 O   0  0  0  0  0  0  0  0  0  0  0  0
    0.7888    0.6971    0.4421 C   0  0  0  0  0  0  0  0  0  0  0  0
   -0.5377    0.2750    0.7491 O   0  0  0  0  0  0  0  0  0  0  0  0
   -1.5883    1.1173    0.3736 C   0  0  0  0  0  0  0  0  0  0  0  0
   -1.9397    1.0008   -0.9771 O   0  0  0  0  0  0  0  0  0  0  0  0
   -2.5133   -0.2515   -1.3612 C   0  0  0  0  0  0  0  0  0  0  0  0
   -2.9318   -0.1004   -2.8314 C   0  0  0  0  0  0  0  0  0  0  0  0
   -1.8501    0.1951   -3.6712 O   0  0  0  0  0  0  0  0  0  0  0  0
   -3.7136   -0.6409   -0.4873 C   0  0  0  0  0  0  0  0  0  0  0  0
   -4.2203   -1.9066   -0.8202 O   0  0  0  0  0  0  0  0  0  0  0  0
   -3.3167   -0.5728    0.9945 C   0  0  0  0  0  0  0  0  0  0  0  0
   -4.4168   -0.8185    1.8371 O   0  0  0  0  0  0  0  0  0  0  0  0
   -2.7915    0.8336    1.2888 C   0  0  0  0  0  0  0  0  0  0  0  0
   -2.4038    0.9963    2.6210 O   0  0  0  0  0  0  0  0  0  0  0  0
    1.4606    1.1155    1.7660 C   0  0  0  0  0  0  0  0  0  0  0  0
    0.9954    2.3617    2.2222 O   0  0  0  0  0  0  0  0  0  0  0  0
    2.9964    1.1241    1.7068 C   0  0  0  0  0  0  0  0  0  0  0  0
    3.5314    1.1985    3.0003 O   0  0  0  0  0  0  0  0  0  0  0  0
    5.2246   -1.5515   -0.4866 H   0  0  0  0  0  0  0  0  0  0  0  0
    5.3615   -2.0147    1.2352 H   0  0  0  0  0  0  0  0  0  0  0  0
    6.6073   -0.9754    0.4853 H   0  0  0  0  0  0  0  0  0  0  0  0
    3.2602   -1.0269    1.6647 H   0  0  0  0  0  0  0  0  0  0  0  0
    1.2659   -1.3885    0.3050 H   0  0  0  0  0  0  0  0  0  0  0  0
    1.7627    0.0733   -2.3019 H   0  0  0  0  0  0  0  0  0  0  0  0
    0.0947   -0.3639   -1.8704 H   0  0  0  0  0  0  0  0  0  0  0  0
    2.2247   -2.1720   -2.1620 H   0  0  0  0  0  0  0  0  0  0  0  0
    0.7636    1.5560   -0.2424 H   0  0  0  0  0  0  0  0  0  0  0  0
   -1.2976    2.1707    0.4957 H   0  0  0  0  0  0  0  0  0  0  0  0
   -1.7523   -1.0419   -1.2707 H   0  0  0  0  0  0  0  0  0  0  0  0
   -3.6993    0.6818   -2.8927 H   0  0  0  0  0  0  0  0  0  0  0  0
   -3.3540   -1.0435   -3.1822 H   0  0  0  0  0  0  0  0  0  0  0  0
   -1.4866    1.0486   -3.4018 H   0  0  0  0  0  0  0  0  0  0  0  0
   -4.5409    0.0579   -0.6592 H   0  0  0  0  0  0  0  0  0  0  0  0
   -3.5109   -2.5639   -0.7861 H   0  0  0  0  0  0  0  0  0  0  0  0
   -2.5106   -1.2963    1.2001 H   0  0  0  0  0  0  0  0  0  0  0  0
   -4.9343   -1.5440    1.4592 H   0  0  0  0  0  0  0  0  0  0  0  0
   -3.5828    1.5580    1.0290 H   0  0  0  0  0  0  0  0  0  0  0  0
   -3.0955    0.6036    3.1740 H   0  0  0  0  0  0  0  0  0  0  0  0
    1.1436    0.3982    2.5321 H   0  0  0  0  0  0  0  0  0  0  0  0
    1.2561    3.0560    1.6001 H   0  0  0  0  0  0  0  0  0  0  0  0
    3.3441    1.9732    1.0944 H   0  0  0  0  0  0  0  0  0  0  0  0
    3.0639    1.8987    3.4812 H   0  0  0  0  0  0  0  0  0  0  0  0
  1  2  1  0  0  0  0
  2  3  1  0  0  0  0
  3  4  1  0  0  0  0
  4  5  1  0  0  0  0
  5  6  1  0  0  0  0
  6  7  1  0  0  0  0
  5  8  1  0  0  0  0
  8  9  1  0  0  0  0
  9 10  1  0  0  0  0
 10 11  1  0  0  0  0
 11 12  1  0  0  0  0
 12 13  1  0  0  0  0
 13 14  1  0  0  0  0
 12 15  1  0  0  0  0
 15 16  1  0  0  0  0
 15 17  1  0  0  0  0
 17 18  1  0  0  0  0
 10 19  1  0  0  0  0
 17 19  1  0  0  0  0
 19 20  1  0  0  0  0
  8 21  1  0  0  0  0
 21 22  1  0  0  0  0
  3 23  1  0  0  0  0
 21 23  1  0  0  0  0
 23 24  1  0  0  0  0
  1 25  1  0  0  0  0
  1 26  1  0  0  0  0
  1 27  1  0  0  0  0
  3 28  1  0  0  0  0
  5 29  1  0  0  0  0
  6 30  1  0  0  0  0
  6 31  1  0  0  0  0
  7 32  1  0  0  0  0
  8 33  1  0  0  0  0
 10 34  1  0  0  0  0
 12 35  1  0  0  0  0
 13 36  1  0  0  0  0
 13 37  1  0  0  0  0
 14 38  1  0  0  0  0
 15 39  1  0  0  0  0
 16 40  1  0  0  0  0
 17 41  1  0  0  0  0
 18 42  1  0  0  0  0
 19 43  1  0  0  0  0
 20 44  1  0  0  0  0
 21 45  1  0  0  0  0
 22 46  1  0  0  0  0
 23 47  1  0  0  0  0
 24 48  1  0  0  0  0
M  END
