 xtb: 6.7.1 (edcfbbe)
          09212615233D

 48 49  0     0  0            999 V2000
    4.5049    0.4738    1.7054 C   0  0  0  0  0  0  0  0  0  0  0  0
    3.7110   -0.4010    0.9132 O   0  0  0  0  0  0  0  0  0  0  0  0
    3.7426   -0.1218   -0.4529 C   0  0  0  0  0  0  0  0  0  0  0  0
    2.9814    1.0191   -0.7815 O   0  0  0  0  0  0  0  0  0  0  0  0
    1.6633    0.6145   -1.1104 C   0  0  0  0  0  0  0  0  0  0  0  0
    0.8193    1.7703    0.9918 C   0  0  0  0  0  0  0  0  0  0  0  0
   -0.0641    2.7663    0.5363 O   0  0  0  0  0  0  0  0  0  0  0  0
    0.7543    0.4869    0.1314 C   0  0  0  0  0  0  0  0  0  0  0  0
   -0.5556    0.2989   -0.3803 O   0  0  0  0  0  0  0  0  0  0  0  0
   -1.4128   -0.6352    0.2608 C   0  0  0  0  0  0  0  0  0  0  0  0
   -0.7420   -1.7802    0.6463 O   0  0  0  0  0  0  0  0  0  0  0  0
   -2.1626   -0.0010    1.4485 C   0  0  0  0  0  0  0  0  0  0  0  0
   -2.7900   -1.0672    2.3571 C   0  0  0  0  0  0  0  0  0  0  0  0
   -3.5649   -0.5100    3.3882 O   0  0  0  0  0  0  0  0  0  0  0  0
   -3.2265    0.9021    0.7950 C   0  0  0  0  0  0  0  0  0  0  0  0
   -2.9280    2.2711    0.8720 O   0  0  0  0  0  0  0  0  0  0  0  0
   -3.3791    0.4108   -0.6712 C   0  0  0  0  0  0  0  0  0  0  0  0
   -4.7028    0.1154   -1.0403 O   0  0  0  0  0  0  0  0  0  0  0  0
   -2.5342   -0.8641   -0.7789 C   0  0  0  0  0  0  0  0  0  0  0  0
   -1.9841   -1.0899   -2.0483 O   0  0  0  0  0  0  0  0  0  0  0  0
    1.8488   -0.7332   -1.8531 C   0  0  0  0  0  0  0  0  0  0  0  0
    0.8102   -1.6620   -1.7363 O   0  0  0  0  0  0  0  0  0  0  0  0
    3.1303   -1.3104   -1.2127 C   0  0  0  0  0  0  0  0  0  0  0  0
    4.0584   -1.7888   -2.1425 O   0  0  0  0  0  0  0  0  0  0  0  0
    4.1859    1.5103    1.5771 H   0  0  0  0  0  0  0  0  0  0  0  0
    5.5590    0.3799    1.4298 H   0  0  0  0  0  0  0  0  0  0  0  0
    4.3541    0.1569    2.7332 H   0  0  0  0  0  0  0  0  0  0  0  0
    4.7708    0.0748   -0.7896 H   0  0  0  0  0  0  0  0  0  0  0  0
    1.2487    1.3832   -1.7667 H   0  0  0  0  0  0  0  0  0  0  0  0
    1.8529    2.1302    1.0001 H   0  0  0  0  0  0  0  0  0  0  0  0
    0.5183    1.5508    2.0175 H   0  0  0  0  0  0  0  0  0  0  0  0
    0.2467    3.1086   -0.3124 H   0  0  0  0  0  0  0  0  0  0  0  0
    1.0722   -0.3709    0.7337 H   0  0  0  0  0  0  0  0  0  0  0  0
   -0.2684   -2.1411   -0.1307 H   0  0  0  0  0  0  0  0  0  0  0  0
   -1.4796    0.6080    2.0444 H   0  0  0  0  0  0  0  0  0  0  0  0
   -1.9959   -1.7078    2.7576 H   0  0  0  0  0  0  0  0  0  0  0  0
   -3.4775   -1.6903    1.7823 H   0  0  0  0  0  0  0  0  0  0  0  0
   -3.0001    0.0201    3.9679 H   0  0  0  0  0  0  0  0  0  0  0  0
   -4.1812    0.7818    1.3197 H   0  0  0  0  0  0  0  0  0  0  0  0
   -1.9864    2.4235    0.6640 H   0  0  0  0  0  0  0  0  0  0  0  0
   -2.9470    1.1694   -1.3392 H   0  0  0  0  0  0  0  0  0  0  0  0
   -5.2405    0.9173   -0.9816 H   0  0  0  0  0  0  0  0  0  0  0  0
   -3.1405   -1.7204   -0.4587 H   0  0  0  0  0  0  0  0  0  0  0  0
   -2.7049   -1.2393   -2.6774 H   0  0  0  0  0  0  0  0  0  0  0  0
    2.0656   -0.5197   -2.9100 H   0  0  0  0  0  0  0  0  0  0  0  0
   -0.0170   -1.2943   -2.1018 H   0  0  0  0  0  0  0  0  0  0  0  0
    2.8550   -2.0808   -0.4823 H   0  0  0  0  0  0  0  0  0  0  0  0
    3.7321   -2.6145   -2.5308 H   0  0  0  0  0  0  0  0  0  0  0  0
  1  2  1  0  0  0  0
  2  3  1  0  0  0  0
  3  4  1  0  0  0  0
  4  5  1  0  0  0  0
  6  7  1  0  0  0  0
  5  8  1  0  0  0  0
  6  8  1  0  0  0  0
  8  9  1  0  0  0  0
  9 10  1  0  0  0  0
 10 11  1  0  0  0  0
 10 12  1  0  0  0  0
 12 13  1  0  0  0  0
 13 14  1  0  0  0  0
 12 15  1  0  0  0  0
 15 16  1  0  0  0  0
 15 17  1  0  0  0  0
 17 18  1  0  0  0  0
 10 19  1  0  0  0  0
 17 19  1  0  0  0  0
 19 20  1  0  0  0  0
  5 21  1  0  0  0  0
 21 22  1  0  0  0  0
  3 23  1  0  0  0  0
 21 23  1  0  0  0  0
 23 24  1  0  0  0  0
  1 25  1  0  0  0  0
  1 26  1  0  0  0  0
  1 27  1  0  0  0  0
  3 28  1  0  0  0  0
  5 29  1  0  0  0  0
  6 30  1  0  0  0  0
  6 31  1  0  0  0  0
  7 32  1  0  0  0  0
  8 33  1  0  0  0  0
 11 34  1  0  0  0  0
 12 35  1  0  0  0  0
 13 36  1  0  0  0  0
 13 37  1  0  0  0  0
 14 38  1  0  0  0  0
 15 39  1  0  0  0  0
 16 40  1  0  0  0  0
 17 41  1  0  0  0  0
 18 42  1  0  0  0  0
 19 43  1  0  0  0  0
 20 44  1  0  0  0  0
 21 45  1  0  0  0  0
 22 46  1  0  0  0  0
 23 47  1  0  0  0  0
 24 48  1  0  0  0  0
M  END
