 xtb: 6.7.1 (edcfbbe)
          09222613173D

 48 49  0     0  0            999 V2000
    5.3332    2.5478   -0.4240 C   0  0  0  0  0  0  0  0  0  0  0  0
    4.6780    1.3808   -0.8856 O   0  0  0  0  0  0  0  0  0  0  0  0
    3.3054    1.4339   -0.7904 C   0  0  0  0  0  0  0  0  0  0  0  0
    2.9543    1.4293    0.5809 O   0  0  0  0  0  0  0  0  0  0  0  0
    1.5777    1.3709    0.8391 C   0  0  0  0  0  0  0  0  0  0  0  0
    1.3807    1.5108    2.3560 C   0  0  0  0  0  0  0  0  0  0  0  0
    1.6321    2.8033    2.8317 O   0  0  0  0  0  0  0  0  0  0  0  0
    0.9884    0.0422    0.3089 C   0  0  0  0  0  0  0  0  0  0  0  0
   -0.3951    0.0030    0.6203 O   0  0  0  0  0  0  0  0  0  0  0  0
   -0.9007   -1.1319    1.2779 C   0  0  0  0  0  0  0  0  0  0  0  0
   -2.1092   -0.7537    1.8670 O   0  0  0  0  0  0  0  0  0  0  0  0
   -3.0907   -0.3587    0.9163 C   0  0  0  0  0  0  0  0  0  0  0  0
   -4.3264    0.0893    1.7094 C   0  0  0  0  0  0  0  0  0  0  0  0
   -5.3239    0.6275    0.8734 O   0  0  0  0  0  0  0  0  0  0  0  0
   -3.4333   -1.5098   -0.0476 C   0  0  0  0  0  0  0  0  0  0  0  0
   -4.2991   -1.0992   -1.0751 O   0  0  0  0  0  0  0  0  0  0  0  0
   -2.1470   -2.0338   -0.6982 C   0  0  0  0  0  0  0  0  0  0  0  0
   -2.3787   -3.2067   -1.4433 O   0  0  0  0  0  0  0  0  0  0  0  0
   -1.1574   -2.3804    0.4130 C   0  0  0  0  0  0  0  0  0  0  0  0
    0.0371   -2.9309   -0.0877 O   0  0  0  0  0  0  0  0  0  0  0  0
    1.2147    0.0702   -1.2115 C   0  0  0  0  0  0  0  0  0  0  0  0
    0.7093   -1.0299   -1.9178 O   0  0  0  0  0  0  0  0  0  0  0  0
    2.7205    0.2149   -1.5127 C   0  0  0  0  0  0  0  0  0  0  0  0
    2.9034    0.3744   -2.8916 O   0  0  0  0  0  0  0  0  0  0  0  0
    5.1164    2.7247    0.6320 H   0  0  0  0  0  0  0  0  0  0  0  0
    5.0258    3.4208   -1.0107 H   0  0  0  0  0  0  0  0  0  0  0  0
    6.3961    2.3665   -0.5624 H   0  0  0  0  0  0  0  0  0  0  0  0
    2.9042    2.3551   -1.2672 H   0  0  0  0  0  0  0  0  0  0  0  0
    1.0559    2.1992    0.3273 H   0  0  0  0  0  0  0  0  0  0  0  0
    2.0981    0.8640    2.8638 H   0  0  0  0  0  0  0  0  0  0  0  0
    0.3570    1.1951    2.6010 H   0  0  0  0  0  0  0  0  0  0  0  0
    1.0762    3.4302    2.3546 H   0  0  0  0  0  0  0  0  0  0  0  0
    1.5139   -0.8058    0.7602 H   0  0  0  0  0  0  0  0  0  0  0  0
   -0.2343   -1.4115    2.1095 H   0  0  0  0  0  0  0  0  0  0  0  0
   -2.7060    0.4839    0.3225 H   0  0  0  0  0  0  0  0  0  0  0  0
   -4.0123    0.8040    2.4773 H   0  0  0  0  0  0  0  0  0  0  0  0
   -4.7758   -0.7737    2.2049 H   0  0  0  0  0  0  0  0  0  0  0  0
   -5.0170    1.4698    0.5173 H   0  0  0  0  0  0  0  0  0  0  0  0
   -3.8876   -2.3326    0.5314 H   0  0  0  0  0  0  0  0  0  0  0  0
   -5.0471   -0.6366   -0.6651 H   0  0  0  0  0  0  0  0  0  0  0  0
   -1.7240   -1.2508   -1.3443 H   0  0  0  0  0  0  0  0  0  0  0  0
   -3.1133   -3.0223   -2.0402 H   0  0  0  0  0  0  0  0  0  0  0  0
   -1.6364   -3.1117    1.0837 H   0  0  0  0  0  0  0  0  0  0  0  0
   -0.2338   -3.6331   -0.6979 H   0  0  0  0  0  0  0  0  0  0  0  0
    0.6982    0.9500   -1.6218 H   0  0  0  0  0  0  0  0  0  0  0  0
    0.6991   -1.8044   -1.3260 H   0  0  0  0  0  0  0  0  0  0  0  0
    3.2547   -0.6783   -1.1508 H   0  0  0  0  0  0  0  0  0  0  0  0
    2.3187   -0.2657   -3.3237 H   0  0  0  0  0  0  0  0  0  0  0  0
  1  2  1  0  0  0  0
  2  3  1  0  0  0  0
  3  4  1  0  0  0  0
  4  5  1  0  0  0  0
  5  6  1  0  0  0  0
  6  7  1  0  0  0  0
  5  8  1  0  0  0  0
  8  9  1  0  0  0  0
  9 10  1  0  0  0  0
 10 11  1  0  0  0  0
 11 12  1  0  0  0  0
 12 13  1  0  0  0  0
 13 14  1  0  0  0  0
 12 15  1  0  0  0  0
 15 16  1  0  0  0  0
 15 17  1  0  0  0  0
 17 18  1  0  0  0  0
 10 19  1  0  0  0  0
 17 19  1  0  0  0  0
 19 20  1  0  0  0  0
  8 21  1  0  0  0  0
 21 22  1  0  0  0  0
  3 23  1  0  0  0  0
 21 23  1  0  0  0  0
 23 24  1  0  0  0  0
  1 25  1  0  0  0  0
  1 26  1  0  0  0  0
  1 27  1  0  0  0  0
  3 28  1  0  0  0  0
  5 29  1  0  0  0  0
  6 30  1  0  0  0  0
  6 31  1  0  0  0  0
  7 32  1  0  0  0  0
  8 33  1  0  0  0  0
 10 34  1  0  0  0  0
 12 35  1  0  0  0  0
 13 36  1  0  0  0  0
 13 37  1  0  0  0  0
 14 38  1  0  0  0  0
 15 39  1  0  0  0  0
 16 40  1  0  0  0  0
 17 41  1  0  0  0  0
 18 42  1  0  0  0  0
 19 43  1  0  0  0  0
 20 44  1  0  0  0  0
 21 45  1  0  0  0  0
 22 46  1  0  0  0  0
 23 47  1  0  0  0  0
 24 48  1  0  0  0  0
M  END
