 xtb: 6.7.1 (edcfbbe)
          09212615433D

 48 49  0     0  0            999 V2000
    4.6617    0.2566    0.2525 C   0  0  0  0  0  0  0  0  0  0  0  0
    3.4906    0.1852   -0.5537 O   0  0  0  0  0  0  0  0  0  0  0  0
    2.9989    1.4360   -0.9576 C   0  0  0  0  0  0  0  0  0  0  0  0
    2.5846    2.2207    0.1254 O   0  0  0  0  0  0  0  0  0  0  0  0
    1.2102    2.1074    0.4918 C   0  0  0  0  0  0  0  0  0  0  0  0
    1.1178    2.5455    1.9572 C   0  0  0  0  0  0  0  0  0  0  0  0
    1.4977    3.8839    2.1337 O   0  0  0  0  0  0  0  0  0  0  0  0
    0.6737    0.6803    0.2892 C   0  0  0  0  0  0  0  0  0  0  0  0
   -0.6892    0.7111    0.7023 O   0  0  0  0  0  0  0  0  0  0  0  0
   -1.2344   -0.2181    1.6142 C   0  0  0  0  0  0  0  0  0  0  0  0
   -2.6200   -0.1638    1.4422 O   0  0  0  0  0  0  0  0  0  0  0  0
   -3.0716   -0.6584    0.1855 C   0  0  0  0  0  0  0  0  0  0  0  0
   -4.5861   -0.4023    0.1413 C   0  0  0  0  0  0  0  0  0  0  0  0
   -5.1534   -0.7618   -1.0942 O   0  0  0  0  0  0  0  0  0  0  0  0
   -2.7461   -2.1540    0.0458 C   0  0  0  0  0  0  0  0  0  0  0  0
   -3.0795   -2.6550   -1.2244 O   0  0  0  0  0  0  0  0  0  0  0  0
   -1.2419   -2.3706    0.2529 C   0  0  0  0  0  0  0  0  0  0  0  0
   -0.9311   -3.7415    0.3849 O   0  0  0  0  0  0  0  0  0  0  0  0
   -0.7994   -1.6968    1.5555 C   0  0  0  0  0  0  0  0  0  0  0  0
    0.5747   -1.8431    1.7924 O   0  0  0  0  0  0  0  0  0  0  0  0
    0.7899    0.2987   -1.2089 C   0  0  0  0  0  0  0  0  0  0  0  0
    1.0671   -1.0603   -1.4030 O   0  0  0  0  0  0  0  0  0  0  0  0
    1.8462    1.1598   -1.9349 C   0  0  0  0  0  0  0  0  0  0  0  0
    1.2483    2.3379   -2.3995 O   0  0  0  0  0  0  0  0  0  0  0  0
    4.4634    0.8171    1.1677 H   0  0  0  0  0  0  0  0  0  0  0  0
    5.4722    0.7364   -0.3026 H   0  0  0  0  0  0  0  0  0  0  0  0
    4.9219   -0.7705    0.4890 H   0  0  0  0  0  0  0  0  0  0  0  0
    3.8088    2.0156   -1.4339 H   0  0  0  0  0  0  0  0  0  0  0  0
    0.6126    2.7907   -0.1259 H   0  0  0  0  0  0  0  0  0  0  0  0
    1.7443    1.8802    2.5673 H   0  0  0  0  0  0  0  0  0  0  0  0
    0.0810    2.4701    2.2870 H   0  0  0  0  0  0  0  0  0  0  0  0
    2.3697    4.0085    1.7304 H   0  0  0  0  0  0  0  0  0  0  0  0
    1.2493   -0.0231    0.8960 H   0  0  0  0  0  0  0  0  0  0  0  0
   -1.0551    0.1442    2.6400 H   0  0  0  0  0  0  0  0  0  0  0  0
   -2.5689   -0.1120   -0.6253 H   0  0  0  0  0  0  0  0  0  0  0  0
   -4.7663    0.6481    0.3862 H   0  0  0  0  0  0  0  0  0  0  0  0
   -5.0706   -1.0204    0.9005 H   0  0  0  0  0  0  0  0  0  0  0  0
   -4.9393   -0.0915   -1.7586 H   0  0  0  0  0  0  0  0  0  0  0  0
   -3.2865   -2.7075    0.8324 H   0  0  0  0  0  0  0  0  0  0  0  0
   -3.9972   -2.3964   -1.4243 H   0  0  0  0  0  0  0  0  0  0  0  0
   -0.6981   -1.9449   -0.5985 H   0  0  0  0  0  0  0  0  0  0  0  0
   -1.2342   -4.1967   -0.4136 H   0  0  0  0  0  0  0  0  0  0  0  0
   -1.3649   -2.1792    2.3723 H   0  0  0  0  0  0  0  0  0  0  0  0
    0.7808   -2.7887    1.7078 H   0  0  0  0  0  0  0  0  0  0  0  0
   -0.1789    0.4931   -1.6822 H   0  0  0  0  0  0  0  0  0  0  0  0
    1.9589   -1.2409   -1.0647 H   0  0  0  0  0  0  0  0  0  0  0  0
    2.2345    0.5560   -2.7670 H   0  0  0  0  0  0  0  0  0  0  0  0
    1.8539    2.8144   -2.9867 H   0  0  0  0  0  0  0  0  0  0  0  0
  1  2  1  0  0  0  0
  2  3  1  0  0  0  0
  3  4  1  0  0  0  0
  4  5  1  0  0  0  0
  5  6  1  0  0  0  0
  6  7  1  0  0  0  0
  5  8  1  0  0  0  0
  8  9  1  0  0  0  0
  9 10  1  0  0  0  0
 10 11  1  0  0  0  0
 11 12  1  0  0  0  0
 12 13  1  0  0  0  0
 13 14  1  0  0  0  0
 12 15  1  0  0  0  0
 15 16  1  0  0  0  0
 15 17  1  0  0  0  0
 17 18  1  0  0  0  0
 10 19  1  0  0  0  0
 17 19  1  0  0  0  0
 19 20  1  0  0  0  0
  8 21  1  0  0  0  0
 21 22  1  0  0  0  0
  3 23  1  0  0  0  0
 21 23  1  0  0  0  0
 23 24  1  0  0  0  0
  1 25  1  0  0  0  0
  1 26  1  0  0  0  0
  1 27  1  0  0  0  0
  3 28  1  0  0  0  0
  5 29  1  0  0  0  0
  6 30  1  0  0  0  0
  6 31  1  0  0  0  0
  7 32  1  0  0  0  0
  8 33  1  0  0  0  0
 10 34  1  0  0  0  0
 12 35  1  0  0  0  0
 13 36  1  0  0  0  0
 13 37  1  0  0  0  0
 14 38  1  0  0  0  0
 15 39  1  0  0  0  0
 16 40  1  0  0  0  0
 17 41  1  0  0  0  0
 18 42  1  0  0  0  0
 19 43  1  0  0  0  0
 20 44  1  0  0  0  0
 21 45  1  0  0  0  0
 22 46  1  0  0  0  0
 23 47  1  0  0  0  0
 24 48  1  0  0  0  0
M  END
