 xtb: 6.7.1 (edcfbbe)
          09222613083D

 48 49  0     0  0            999 V2000
    4.1496    1.0707    0.8505 C   0  0  0  0  0  0  0  0  0  0  0  0
    3.4105   -0.0915    0.4985 O   0  0  0  0  0  0  0  0  0  0  0  0
    3.5370   -0.4693   -0.8408 C   0  0  0  0  0  0  0  0  0  0  0  0
    2.9674    0.4517   -1.7343 O   0  0  0  0  0  0  0  0  0  0  0  0
    1.5456    0.4175   -1.8903 C   0  0  0  0  0  0  0  0  0  0  0  0
    1.0846    1.8752   -2.0234 C   0  0  0  0  0  0  0  0  0  0  0  0
    1.6836    2.5080   -3.1216 O   0  0  0  0  0  0  0  0  0  0  0  0
    0.8378   -0.3131   -0.7436 C   0  0  0  0  0  0  0  0  0  0  0  0
   -0.5476   -0.3964   -1.0881 O   0  0  0  0  0  0  0  0  0  0  0  0
   -1.5230   -0.0208   -0.1787 C   0  0  0  0  0  0  0  0  0  0  0  0
   -1.5712   -0.9615    0.8789 O   0  0  0  0  0  0  0  0  0  0  0  0
   -2.6935   -0.8361    1.7553 C   0  0  0  0  0  0  0  0  0  0  0  0
   -3.5053   -2.1414    1.6960 C   0  0  0  0  0  0  0  0  0  0  0  0
   -2.7939   -3.2234    2.2327 O   0  0  0  0  0  0  0  0  0  0  0  0
   -3.5951    0.3716    1.4460 C   0  0  0  0  0  0  0  0  0  0  0  0
   -4.5371    0.5753    2.4654 O   0  0  0  0  0  0  0  0  0  0  0  0
   -2.7849    1.6595    1.1589 C   0  0  0  0  0  0  0  0  0  0  0  0
   -3.5038    2.5173    0.3100 O   0  0  0  0  0  0  0  0  0  0  0  0
   -1.4242    1.3667    0.4834 C   0  0  0  0  0  0  0  0  0  0  0  0
   -0.3764    1.4247    1.4162 O   0  0  0  0  0  0  0  0  0  0  0  0
    1.4087   -1.7343   -0.5195 C   0  0  0  0  0  0  0  0  0  0  0  0
    1.2962   -2.1186    0.8240 O   0  0  0  0  0  0  0  0  0  0  0  0
    2.8804   -1.8466   -0.9911 C   0  0  0  0  0  0  0  0  0  0  0  0
    3.0295   -2.3490   -2.2892 O   0  0  0  0  0  0  0  0  0  0  0  0
    3.8071    1.9365    0.2799 H   0  0  0  0  0  0  0  0  0  0  0  0
    5.2161    0.9122    0.6673 H   0  0  0  0  0  0  0  0  0  0  0  0
    3.9698    1.2282    1.9103 H   0  0  0  0  0  0  0  0  0  0  0  0
    4.5996   -0.5023   -1.1344 H   0  0  0  0  0  0  0  0  0  0  0  0
    1.2996   -0.0993   -2.8303 H   0  0  0  0  0  0  0  0  0  0  0  0
    1.3122    2.4111   -1.0908 H   0  0  0  0  0  0  0  0  0  0  0  0
    0.0082    1.8960   -2.2016 H   0  0  0  0  0  0  0  0  0  0  0  0
    2.6403    2.3828   -3.0545 H   0  0  0  0  0  0  0  0  0  0  0  0
    0.9740    0.2666    0.1731 H   0  0  0  0  0  0  0  0  0  0  0  0
   -2.4418   -0.0585   -0.7840 H   0  0  0  0  0  0  0  0  0  0  0  0
   -2.2910   -0.7382    2.7753 H   0  0  0  0  0  0  0  0  0  0  0  0
   -3.7828   -2.3345    0.6502 H   0  0  0  0  0  0  0  0  0  0  0  0
   -4.4130   -2.0334    2.2936 H   0  0  0  0  0  0  0  0  0  0  0  0
   -1.9424   -3.2783    1.7777 H   0  0  0  0  0  0  0  0  0  0  0  0
   -4.1977    0.1483    0.5577 H   0  0  0  0  0  0  0  0  0  0  0  0
   -4.0904    0.7256    3.3106 H   0  0  0  0  0  0  0  0  0  0  0  0
   -2.5679    2.1662    2.1144 H   0  0  0  0  0  0  0  0  0  0  0  0
   -4.3660    2.7054    0.7071 H   0  0  0  0  0  0  0  0  0  0  0  0
   -1.2401    2.1480   -0.2571 H   0  0  0  0  0  0  0  0  0  0  0  0
   -0.3973    0.6102    1.9432 H   0  0  0  0  0  0  0  0  0  0  0  0
    0.8004   -2.4422   -1.0927 H   0  0  0  0  0  0  0  0  0  0  0  0
    1.8970   -1.5660    1.3455 H   0  0  0  0  0  0  0  0  0  0  0  0
    3.3839   -2.5645   -0.3348 H   0  0  0  0  0  0  0  0  0  0  0  0
    2.8474   -1.6558   -2.9373 H   0  0  0  0  0  0  0  0  0  0  0  0
  1  2  1  0  0  0  0
  2  3  1  0  0  0  0
  3  4  1  0  0  0  0
  4  5  1  0  0  0  0
  5  6  1  0  0  0  0
  6  7  1  0  0  0  0
  5  8  1  0  0  0  0
  8  9  1  0  0  0  0
  9 10  1  0  0  0  0
 10 11  1  0  0  0  0
 11 12  1  0  0  0  0
 12 13  1  0  0  0  0
 13 14  1  0  0  0  0
 12 15  1  0  0  0  0
 15 16  1  0  0  0  0
 15 17  1  0  0  0  0
 17 18  1  0  0  0  0
 10 19  1  0  0  0  0
 17 19  1  0  0  0  0
 19 20  1  0  0  0  0
  8 21  1  0  0  0  0
 21 22  1  0  0  0  0
  3 23  1  0  0  0  0
 21 23  1  0  0  0  0
 23 24  1  0  0  0  0
  1 25  1  0  0  0  0
  1 26  1  0  0  0  0
  1 27  1  0  0  0  0
  3 28  1  0  0  0  0
  5 29  1  0  0  0  0
  6 30  1  0  0  0  0
  6 31  1  0  0  0  0
  7 32  1  0  0  0  0
  8 33  1  0  0  0  0
 10 34  1  0  0  0  0
 12 35  1  0  0  0  0
 13 36  1  0  0  0  0
 13 37  1  0  0  0  0
 14 38  1  0  0  0  0
 15 39  1  0  0  0  0
 16 40  1  0  0  0  0
 17 41  1  0  0  0  0
 18 42  1  0  0  0  0
 19 43  1  0  0  0  0
 20 44  1  0  0  0  0
 21 45  1  0  0  0  0
 22 46  1  0  0  0  0
 23 47  1  0  0  0  0
 24 48  1  0  0  0  0
M  END
