 xtb: 6.7.1 (edcfbbe)
          09222613013D

 48 49  0     0  0            999 V2000
    5.6253   -1.2560    0.0362 C   0  0  0  0  0  0  0  0  0  0  0  0
    4.9395   -0.1306    0.5695 O   0  0  0  0  0  0  0  0  0  0  0  0
    3.5867   -0.3160    0.7599 C   0  0  0  0  0  0  0  0  0  0  0  0
    2.9456   -0.3165   -0.5002 O   0  0  0  0  0  0  0  0  0  0  0  0
    1.5455   -0.4955   -0.4442 C   0  0  0  0  0  0  0  0  0  0  0  0
    1.0684   -0.5483   -1.9030 C   0  0  0  0  0  0  0  0  0  0  0  0
    1.4711   -1.7243   -2.5466 O   0  0  0  0  0  0  0  0  0  0  0  0
    0.8553    0.6352    0.3449 C   0  0  0  0  0  0  0  0  0  0  0  0
   -0.5073    0.2828    0.5345 O   0  0  0  0  0  0  0  0  0  0  0  0
   -1.4930    1.2217    0.2078 C   0  0  0  0  0  0  0  0  0  0  0  0
   -2.0648    0.9595   -1.0460 O   0  0  0  0  0  0  0  0  0  0  0  0
   -2.7259   -0.3024   -1.1443 C   0  0  0  0  0  0  0  0  0  0  0  0
   -3.3370   -0.3681   -2.5510 C   0  0  0  0  0  0  0  0  0  0  0  0
   -2.3676   -0.3168   -3.5611 O   0  0  0  0  0  0  0  0  0  0  0  0
   -3.8100   -0.4735   -0.0689 C   0  0  0  0  0  0  0  0  0  0  0  0
   -4.3950   -1.7491   -0.1041 O   0  0  0  0  0  0  0  0  0  0  0  0
   -3.2279   -0.1700    1.3199 C   0  0  0  0  0  0  0  0  0  0  0  0
   -4.2280   -0.1764    2.3102 O   0  0  0  0  0  0  0  0  0  0  0  0
   -2.5873    1.2191    1.2903 C   0  0  0  0  0  0  0  0  0  0  0  0
   -2.0294    1.5858    2.5162 O   0  0  0  0  0  0  0  0  0  0  0  0
    1.5272    0.8030    1.7210 C   0  0  0  0  0  0  0  0  0  0  0  0
    1.0805    1.9295    2.4279 O   0  0  0  0  0  0  0  0  0  0  0  0
    3.0630    0.8380    1.6205 C   0  0  0  0  0  0  0  0  0  0  0  0
    3.6292    0.7318    2.8982 O   0  0  0  0  0  0  0  0  0  0  0  0
    5.2786   -1.4799   -0.9745 H   0  0  0  0  0  0  0  0  0  0  0  0
    5.4828   -2.1313    0.6774 H   0  0  0  0  0  0  0  0  0  0  0  0
    6.6749   -0.9753    0.0170 H   0  0  0  0  0  0  0  0  0  0  0  0
    3.3800   -1.2766    1.2786 H   0  0  0  0  0  0  0  0  0  0  0  0
    1.3091   -1.4488    0.0553 H   0  0  0  0  0  0  0  0  0  0  0  0
    1.4585    0.3377   -2.4202 H   0  0  0  0  0  0  0  0  0  0  0  0
   -0.0203   -0.5366   -1.9385 H   0  0  0  0  0  0  0  0  0  0  0  0
    2.4365   -1.7536   -2.5511 H   0  0  0  0  0  0  0  0  0  0  0  0
    0.9356    1.5713   -0.2244 H   0  0  0  0  0  0  0  0  0  0  0  0
   -1.0706    2.2307    0.1252 H   0  0  0  0  0  0  0  0  0  0  0  0
   -1.9812   -1.1048   -1.0258 H   0  0  0  0  0  0  0  0  0  0  0  0
   -4.0544    0.4561   -2.6542 H   0  0  0  0  0  0  0  0  0  0  0  0
   -3.8634   -1.3169   -2.6682 H   0  0  0  0  0  0  0  0  0  0  0  0
   -1.9032    0.5268   -3.4874 H   0  0  0  0  0  0  0  0  0  0  0  0
   -4.6308    0.2277   -0.2615 H   0  0  0  0  0  0  0  0  0  0  0  0
   -3.7091   -2.4270   -0.0246 H   0  0  0  0  0  0  0  0  0  0  0  0
   -2.4452   -0.9068    1.5646 H   0  0  0  0  0  0  0  0  0  0  0  0
   -4.8224   -0.9203    2.1371 H   0  0  0  0  0  0  0  0  0  0  0  0
   -3.3563    1.9494    0.9839 H   0  0  0  0  0  0  0  0  0  0  0  0
   -2.6571    1.3397    3.2110 H   0  0  0  0  0  0  0  0  0  0  0  0
    1.2352   -0.0528    2.3408 H   0  0  0  0  0  0  0  0  0  0  0  0
    1.2368    2.7319    1.9115 H   0  0  0  0  0  0  0  0  0  0  0  0
    3.3836    1.7740    1.1329 H   0  0  0  0  0  0  0  0  0  0  0  0
    3.1383    1.3224    3.4909 H   0  0  0  0  0  0  0  0  0  0  0  0
  1  2  1  0  0  0  0
  2  3  1  0  0  0  0
  3  4  1  0  0  0  0
  4  5  1  0  0  0  0
  5  6  1  0  0  0  0
  6  7  1  0  0  0  0
  5  8  1  0  0  0  0
  8  9  1  0  0  0  0
  9 10  1  0  0  0  0
 10 11  1  0  0  0  0
 11 12  1  0  0  0  0
 12 13  1  0  0  0  0
 13 14  1  0  0  0  0
 12 15  1  0  0  0  0
 15 16  1  0  0  0  0
 15 17  1  0  0  0  0
 17 18  1  0  0  0  0
 10 19  1  0  0  0  0
 17 19  1  0  0  0  0
 19 20  1  0  0  0  0
  8 21  1  0  0  0  0
 21 22  1  0  0  0  0
  3 23  1  0  0  0  0
 21 23  1  0  0  0  0
 23 24  1  0  0  0  0
  1 25  1  0  0  0  0
  1 26  1  0  0  0  0
  1 27  1  0  0  0  0
  3 28  1  0  0  0  0
  5 29  1  0  0  0  0
  6 30  1  0  0  0  0
  6 31  1  0  0  0  0
  7 32  1  0  0  0  0
  8 33  1  0  0  0  0
 10 34  1  0  0  0  0
 12 35  1  0  0  0  0
 13 36  1  0  0  0  0
 13 37  1  0  0  0  0
 14 38  1  0  0  0  0
 15 39  1  0  0  0  0
 16 40  1  0  0  0  0
 17 41  1  0  0  0  0
 18 42  1  0  0  0  0
 19 43  1  0  0  0  0
 20 44  1  0  0  0  0
 21 45  1  0  0  0  0
 22 46  1  0  0  0  0
 23 47  1  0  0  0  0
 24 48  1  0  0  0  0
M  END
