 xtb: 6.7.1 (edcfbbe)
          09212615443D

 48 49  0     0  0            999 V2000
    3.6723    3.6706   -0.0415 C   0  0  0  0  0  0  0  0  0  0  0  0
    2.8528    2.6326   -0.5644 O   0  0  0  0  0  0  0  0  0  0  0  0
    1.5136    2.7038   -0.1614 C   0  0  0  0  0  0  0  0  0  0  0  0
    1.3298    2.4619    1.2054 O   0  0  0  0  0  0  0  0  0  0  0  0
    1.4809    1.1228    1.6588 C   0  0  0  0  0  0  0  0  0  0  0  0
    2.9601    0.7014    1.7532 C   0  0  0  0  0  0  0  0  0  0  0  0
    3.1298   -0.4843    2.4836 O   0  0  0  0  0  0  0  0  0  0  0  0
    0.6459    0.1147    0.8499 C   0  0  0  0  0  0  0  0  0  0  0  0
   -0.7139    0.3252    1.2193 O   0  0  0  0  0  0  0  0  0  0  0  0
   -1.6022   -0.6923    1.6140 C   0  0  0  0  0  0  0  0  0  0  0  0
   -2.7991   -0.5689    0.8899 O   0  0  0  0  0  0  0  0  0  0  0  0
   -2.6747   -0.8564   -0.4951 C   0  0  0  0  0  0  0  0  0  0  0  0
   -4.0526   -0.6054   -1.1277 C   0  0  0  0  0  0  0  0  0  0  0  0
   -4.0161   -0.7191   -2.5296 O   0  0  0  0  0  0  0  0  0  0  0  0
   -2.2254   -2.3111   -0.7241 C   0  0  0  0  0  0  0  0  0  0  0  0
   -1.9030   -2.5459   -2.0736 O   0  0  0  0  0  0  0  0  0  0  0  0
   -0.9850   -2.6625    0.1121 C   0  0  0  0  0  0  0  0  0  0  0  0
   -0.8066   -4.0593    0.1923 O   0  0  0  0  0  0  0  0  0  0  0  0
   -1.1574   -2.1661    1.5533 C   0  0  0  0  0  0  0  0  0  0  0  0
   -0.0148   -2.3754    2.3371 O   0  0  0  0  0  0  0  0  0  0  0  0
    0.8607    0.2935   -0.6677 C   0  0  0  0  0  0  0  0  0  0  0  0
    2.1058   -0.2581   -0.9927 O   0  0  0  0  0  0  0  0  0  0  0  0
    0.7191    1.7678   -1.0870 C   0  0  0  0  0  0  0  0  0  0  0  0
   -0.6537    2.0487   -1.1276 O   0  0  0  0  0  0  0  0  0  0  0  0
    3.6007    3.7113    1.0470 H   0  0  0  0  0  0  0  0  0  0  0  0
    3.3711    4.6345   -0.4623 H   0  0  0  0  0  0  0  0  0  0  0  0
    4.6858    3.4255   -0.3444 H   0  0  0  0  0  0  0  0  0  0  0  0
    1.1446    3.7391   -0.2811 H   0  0  0  0  0  0  0  0  0  0  0  0
    1.0526    1.1545    2.6680 H   0  0  0  0  0  0  0  0  0  0  0  0
    3.5226    1.5275    2.2077 H   0  0  0  0  0  0  0  0  0  0  0  0
    3.3563    0.5043    0.7564 H   0  0  0  0  0  0  0  0  0  0  0  0
    2.8490   -0.3461    3.3996 H   0  0  0  0  0  0  0  0  0  0  0  0
    0.9947   -0.8803    1.1365 H   0  0  0  0  0  0  0  0  0  0  0  0
   -1.8950   -0.4674    2.6507 H   0  0  0  0  0  0  0  0  0  0  0  0
   -1.9434   -0.1675   -0.9417 H   0  0  0  0  0  0  0  0  0  0  0  0
   -4.4060    0.3769   -0.8033 H   0  0  0  0  0  0  0  0  0  0  0  0
   -4.7556   -1.3615   -0.7706 H   0  0  0  0  0  0  0  0  0  0  0  0
   -3.6080    0.0730   -2.9076 H   0  0  0  0  0  0  0  0  0  0  0  0
   -3.0399   -2.9800   -0.3992 H   0  0  0  0  0  0  0  0  0  0  0  0
   -2.6560   -2.2585   -2.6208 H   0  0  0  0  0  0  0  0  0  0  0  0
   -0.0998   -2.2078   -0.3479 H   0  0  0  0  0  0  0  0  0  0  0  0
   -0.7249   -4.4138   -0.7051 H   0  0  0  0  0  0  0  0  0  0  0  0
   -2.0070   -2.7296    1.9759 H   0  0  0  0  0  0  0  0  0  0  0  0
    0.2203   -3.3155    2.2795 H   0  0  0  0  0  0  0  0  0  0  0  0
    0.0580   -0.2447   -1.1948 H   0  0  0  0  0  0  0  0  0  0  0  0
    2.2550   -0.2028   -1.9484 H   0  0  0  0  0  0  0  0  0  0  0  0
    1.1635    1.8878   -2.0903 H   0  0  0  0  0  0  0  0  0  0  0  0
   -0.8047    3.0027   -1.1967 H   0  0  0  0  0  0  0  0  0  0  0  0
  1  2  1  0  0  0  0
  2  3  1  0  0  0  0
  3  4  1  0  0  0  0
  4  5  1  0  0  0  0
  5  6  1  0  0  0  0
  6  7  1  0  0  0  0
  5  8  1  0  0  0  0
  8  9  1  0  0  0  0
  9 10  1  0  0  0  0
 10 11  1  0  0  0  0
 11 12  1  0  0  0  0
 12 13  1  0  0  0  0
 13 14  1  0  0  0  0
 12 15  1  0  0  0  0
 15 16  1  0  0  0  0
 15 17  1  0  0  0  0
 17 18  1  0  0  0  0
 10 19  1  0  0  0  0
 17 19  1  0  0  0  0
 19 20  1  0  0  0  0
  8 21  1  0  0  0  0
 21 22  1  0  0  0  0
  3 23  1  0  0  0  0
 21 23  1  0  0  0  0
 23 24  1  0  0  0  0
  1 25  1  0  0  0  0
  1 26  1  0  0  0  0
  1 27  1  0  0  0  0
  3 28  1  0  0  0  0
  5 29  1  0  0  0  0
  6 30  1  0  0  0  0
  6 31  1  0  0  0  0
  7 32  1  0  0  0  0
  8 33  1  0  0  0  0
 10 34  1  0  0  0  0
 12 35  1  0  0  0  0
 13 36  1  0  0  0  0
 13 37  1  0  0  0  0
 14 38  1  0  0  0  0
 15 39  1  0  0  0  0
 16 40  1  0  0  0  0
 17 41  1  0  0  0  0
 18 42  1  0  0  0  0
 19 43  1  0  0  0  0
 20 44  1  0  0  0  0
 21 45  1  0  0  0  0
 22 46  1  0  0  0  0
 23 47  1  0  0  0  0
 24 48  1  0  0  0  0
M  END
