 xtb: 6.7.1 (edcfbbe)
          09222613033D

 48 49  0     0  0            999 V2000
    4.6927    0.7158    0.5333 C   0  0  0  0  0  0  0  0  0  0  0  0
    3.6325    0.2715   -0.3024 O   0  0  0  0  0  0  0  0  0  0  0  0
    3.1018    1.2718   -1.1270 C   0  0  0  0  0  0  0  0  0  0  0  0
    2.4843    2.2992   -0.4032 O   0  0  0  0  0  0  0  0  0  0  0  0
    1.0968    2.1179   -0.1279 C   0  0  0  0  0  0  0  0  0  0  0  0
    0.7882    2.9618    1.1139 C   0  0  0  0  0  0  0  0  0  0  0  0
    0.9825    4.3307    0.8812 O   0  0  0  0  0  0  0  0  0  0  0  0
    0.7510    0.6351    0.0840 C   0  0  0  0  0  0  0  0  0  0  0  0
   -0.6279    0.5702    0.4197 O   0  0  0  0  0  0  0  0  0  0  0  0
   -1.0324   -0.1498    1.5608 C   0  0  0  0  0  0  0  0  0  0  0  0
   -2.4198   -0.0227    1.6384 O   0  0  0  0  0  0  0  0  0  0  0  0
   -3.1055   -0.6118    0.5375 C   0  0  0  0  0  0  0  0  0  0  0  0
   -4.6010   -0.3262    0.7478 C   0  0  0  0  0  0  0  0  0  0  0  0
   -5.3815   -0.7592   -0.3392 O   0  0  0  0  0  0  0  0  0  0  0  0
   -2.8326   -2.1239    0.4554 C   0  0  0  0  0  0  0  0  0  0  0  0
   -3.3815   -2.6922   -0.7070 O   0  0  0  0  0  0  0  0  0  0  0  0
   -1.3203   -2.3829    0.4376 C   0  0  0  0  0  0  0  0  0  0  0  0
   -1.0277   -3.7529    0.5892 O   0  0  0  0  0  0  0  0  0  0  0  0
   -0.6782   -1.6489    1.6157 C   0  0  0  0  0  0  0  0  0  0  0  0
    0.7050   -1.8480    1.6942 O   0  0  0  0  0  0  0  0  0  0  0  0
    1.0263   -0.1276   -1.2367 C   0  0  0  0  0  0  0  0  0  0  0  0
    1.3562   -1.4712   -1.0417 O   0  0  0  0  0  0  0  0  0  0  0  0
    2.1150    0.5789   -2.0771 C   0  0  0  0  0  0  0  0  0  0  0  0
    1.5007    1.4840   -2.9535 O   0  0  0  0  0  0  0  0  0  0  0  0
    4.3578    1.5251    1.1857 H   0  0  0  0  0  0  0  0  0  0  0  0
    5.5343    1.0630   -0.0736 H   0  0  0  0  0  0  0  0  0  0  0  0
    4.9871   -0.1460    1.1256 H   0  0  0  0  0  0  0  0  0  0  0  0
    3.9180    1.7692   -1.6825 H   0  0  0  0  0  0  0  0  0  0  0  0
    0.5051    2.4942   -0.9735 H   0  0  0  0  0  0  0  0  0  0  0  0
    1.4217    2.6156    1.9437 H   0  0  0  0  0  0  0  0  0  0  0  0
   -0.2614    2.8340    1.3835 H   0  0  0  0  0  0  0  0  0  0  0  0
    1.8670    4.4468    0.5084 H   0  0  0  0  0  0  0  0  0  0  0  0
    1.3635    0.2186    0.8896 H   0  0  0  0  0  0  0  0  0  0  0  0
   -0.6334    0.3338    2.4686 H   0  0  0  0  0  0  0  0  0  0  0  0
   -2.7611   -0.1467   -0.3975 H   0  0  0  0  0  0  0  0  0  0  0  0
   -4.7267    0.7429    0.9430 H   0  0  0  0  0  0  0  0  0  0  0  0
   -4.9510   -0.8791    1.6225 H   0  0  0  0  0  0  0  0  0  0  0  0
   -5.2681   -0.1509   -1.0813 H   0  0  0  0  0  0  0  0  0  0  0  0
   -3.2503   -2.6086    1.3550 H   0  0  0  0  0  0  0  0  0  0  0  0
   -4.3106   -2.4103   -0.7686 H   0  0  0  0  0  0  0  0  0  0  0  0
   -0.8997   -2.0102   -0.5054 H   0  0  0  0  0  0  0  0  0  0  0  0
   -1.4888   -4.2333   -0.1107 H   0  0  0  0  0  0  0  0  0  0  0  0
   -1.1566   -2.0244    2.5389 H   0  0  0  0  0  0  0  0  0  0  0  0
    0.8601   -2.7890    1.5219 H   0  0  0  0  0  0  0  0  0  0  0  0
    0.1029   -0.1131   -1.8277 H   0  0  0  0  0  0  0  0  0  0  0  0
    2.1529   -1.5126   -0.4930 H   0  0  0  0  0  0  0  0  0  0  0  0
    2.6557   -0.2034   -2.6296 H   0  0  0  0  0  0  0  0  0  0  0  0
    2.1575    1.8648   -3.5523 H   0  0  0  0  0  0  0  0  0  0  0  0
  1  2  1  0  0  0  0
  2  3  1  0  0  0  0
  3  4  1  0  0  0  0
  4  5  1  0  0  0  0
  5  6  1  0  0  0  0
  6  7  1  0  0  0  0
  5  8  1  0  0  0  0
  8  9  1  0  0  0  0
  9 10  1  0  0  0  0
 10 11  1  0  0  0  0
 11 12  1  0  0  0  0
 12 13  1  0  0  0  0
 13 14  1  0  0  0  0
 12 15  1  0  0  0  0
 15 16  1  0  0  0  0
 15 17  1  0  0  0  0
 17 18  1  0  0  0  0
 10 19  1  0  0  0  0
 17 19  1  0  0  0  0
 19 20  1  0  0  0  0
  8 21  1  0  0  0  0
 21 22  1  0  0  0  0
  3 23  1  0  0  0  0
 21 23  1  0  0  0  0
 23 24  1  0  0  0  0
  1 25  1  0  0  0  0
  1 26  1  0  0  0  0
  1 27  1  0  0  0  0
  3 28  1  0  0  0  0
  5 29  1  0  0  0  0
  6 30  1  0  0  0  0
  6 31  1  0  0  0  0
  7 32  1  0  0  0  0
  8 33  1  0  0  0  0
 10 34  1  0  0  0  0
 12 35  1  0  0  0  0
 13 36  1  0  0  0  0
 13 37  1  0  0  0  0
 14 38  1  0  0  0  0
 15 39  1  0  0  0  0
 16 40  1  0  0  0  0
 17 41  1  0  0  0  0
 18 42  1  0  0  0  0
 19 43  1  0  0  0  0
 20 44  1  0  0  0  0
 21 45  1  0  0  0  0
 22 46  1  0  0  0  0
 23 47  1  0  0  0  0
 24 48  1  0  0  0  0
M  END
