 xtb: 6.7.1 (edcfbbe)
          09222613143D

 48 49  0     0  0            999 V2000
    5.6427    0.6352   -0.9655 C   0  0  0  0  0  0  0  0  0  0  0  0
    4.7688    1.2984   -0.0735 O   0  0  0  0  0  0  0  0  0  0  0  0
    3.6382    0.5862    0.2603 C   0  0  0  0  0  0  0  0  0  0  0  0
    2.7718    0.5805   -0.8600 O   0  0  0  0  0  0  0  0  0  0  0  0
    1.5287   -0.0642   -0.6646 C   0  0  0  0  0  0  0  0  0  0  0  0
    0.8330   -0.0205   -2.0313 C   0  0  0  0  0  0  0  0  0  0  0  0
    1.6161   -0.6333   -3.0141 O   0  0  0  0  0  0  0  0  0  0  0  0
    0.7511    0.6590    0.4413 C   0  0  0  0  0  0  0  0  0  0  0  0
   -0.4695    0.0194    0.7855 O   0  0  0  0  0  0  0  0  0  0  0  0
   -1.6533    0.7446    0.6293 C   0  0  0  0  0  0  0  0  0  0  0  0
   -2.2456    0.5740   -0.6241 O   0  0  0  0  0  0  0  0  0  0  0  0
   -2.7052   -0.7507   -0.8865 C   0  0  0  0  0  0  0  0  0  0  0  0
   -3.3937   -0.7182   -2.2575 C   0  0  0  0  0  0  0  0  0  0  0  0
   -2.4935   -0.5020   -3.3030 O   0  0  0  0  0  0  0  0  0  0  0  0
   -3.6656   -1.2502    0.2029 C   0  0  0  0  0  0  0  0  0  0  0  0
   -4.0807   -2.5746   -0.0168 O   0  0  0  0  0  0  0  0  0  0  0  0
   -3.0035   -1.1138    1.5813 C   0  0  0  0  0  0  0  0  0  0  0  0
   -3.8854   -1.4816    2.6149 O   0  0  0  0  0  0  0  0  0  0  0  0
   -2.5914    0.3434    1.7784 C   0  0  0  0  0  0  0  0  0  0  0  0
   -1.9079    0.5466    2.9861 O   0  0  0  0  0  0  0  0  0  0  0  0
    1.5970    0.6721    1.7258 C   0  0  0  0  0  0  0  0  0  0  0  0
    0.9847    1.4266    2.7392 O   0  0  0  0  0  0  0  0  0  0  0  0
    2.9865    1.2657    1.4712 C   0  0  0  0  0  0  0  0  0  0  0  0
    3.8139    1.0599    2.5815 O   0  0  0  0  0  0  0  0  0  0  0  0
    5.1699    0.4728   -1.9380 H   0  0  0  0  0  0  0  0  0  0  0  0
    5.9622   -0.3279   -0.5524 H   0  0  0  0  0  0  0  0  0  0  0  0
    6.5033    1.2899   -1.0795 H   0  0  0  0  0  0  0  0  0  0  0  0
    3.8862   -0.4613    0.5335 H   0  0  0  0  0  0  0  0  0  0  0  0
    1.6941   -1.1116   -0.3634 H   0  0  0  0  0  0  0  0  0  0  0  0
    0.6382    1.0316   -2.2856 H   0  0  0  0  0  0  0  0  0  0  0  0
   -0.1086   -0.5663   -2.0003 H   0  0  0  0  0  0  0  0  0  0  0  0
    2.4955   -0.2385   -2.9617 H   0  0  0  0  0  0  0  0  0  0  0  0
    0.5637    1.6923    0.1232 H   0  0  0  0  0  0  0  0  0  0  0  0
   -1.4541    1.8247    0.6938 H   0  0  0  0  0  0  0  0  0  0  0  0
   -1.8393   -1.4317   -0.9245 H   0  0  0  0  0  0  0  0  0  0  0  0
   -4.1683    0.0600   -2.2310 H   0  0  0  0  0  0  0  0  0  0  0  0
   -3.8647   -1.6852   -2.4461 H   0  0  0  0  0  0  0  0  0  0  0  0
   -2.0514    0.3422   -3.1545 H   0  0  0  0  0  0  0  0  0  0  0  0
   -4.5843   -0.6520    0.1908 H   0  0  0  0  0  0  0  0  0  0  0  0
   -3.3042   -3.1334   -0.1496 H   0  0  0  0  0  0  0  0  0  0  0  0
   -2.0969   -1.7415    1.6184 H   0  0  0  0  0  0  0  0  0  0  0  0
   -4.4268   -2.2137    2.2910 H   0  0  0  0  0  0  0  0  0  0  0  0
   -3.4934    0.9736    1.7373 H   0  0  0  0  0  0  0  0  0  0  0  0
   -2.3971    0.0724    3.6715 H   0  0  0  0  0  0  0  0  0  0  0  0
    1.7190   -0.3737    2.0555 H   0  0  0  0  0  0  0  0  0  0  0  0
    0.0767    1.1027    2.8606 H   0  0  0  0  0  0  0  0  0  0  0  0
    2.8873    2.3378    1.2479 H   0  0  0  0  0  0  0  0  0  0  0  0
    3.3561    1.4342    3.3456 H   0  0  0  0  0  0  0  0  0  0  0  0
  1  2  1  0  0  0  0
  2  3  1  0  0  0  0
  3  4  1  0  0  0  0
  4  5  1  0  0  0  0
  5  6  1  0  0  0  0
  6  7  1  0  0  0  0
  5  8  1  0  0  0  0
  8  9  1  0  0  0  0
  9 10  1  0  0  0  0
 10 11  1  0  0  0  0
 11 12  1  0  0  0  0
 12 13  1  0  0  0  0
 13 14  1  0  0  0  0
 12 15  1  0  0  0  0
 15 16  1  0  0  0  0
 15 17  1  0  0  0  0
 17 18  1  0  0  0  0
 10 19  1  0  0  0  0
 17 19  1  0  0  0  0
 19 20  1  0  0  0  0
  8 21  1  0  0  0  0
 21 22  1  0  0  0  0
  3 23  1  0  0  0  0
 21 23  1  0  0  0  0
 23 24  1  0  0  0  0
  1 25  1  0  0  0  0
  1 26  1  0  0  0  0
  1 27  1  0  0  0  0
  3 28  1  0  0  0  0
  5 29  1  0  0  0  0
  6 30  1  0  0  0  0
  6 31  1  0  0  0  0
  7 32  1  0  0  0  0
  8 33  1  0  0  0  0
 10 34  1  0  0  0  0
 12 35  1  0  0  0  0
 13 36  1  0  0  0  0
 13 37  1  0  0  0  0
 14 38  1  0  0  0  0
 15 39  1  0  0  0  0
 16 40  1  0  0  0  0
 17 41  1  0  0  0  0
 18 42  1  0  0  0  0
 19 43  1  0  0  0  0
 20 44  1  0  0  0  0
 21 45  1  0  0  0  0
 22 46  1  0  0  0  0
 23 47  1  0  0  0  0
 24 48  1  0  0  0  0
M  END
