 xtb: 6.7.1 (edcfbbe)
          09212615443D

 48 49  0     0  0            999 V2000
    4.7061    0.6712    0.5413 C   0  0  0  0  0  0  0  0  0  0  0  0
    3.6317    0.2655   -0.2995 O   0  0  0  0  0  0  0  0  0  0  0  0
    3.1061    1.2978   -1.0896 C   0  0  0  0  0  0  0  0  0  0  0  0
    2.4972    2.3026   -0.3253 O   0  0  0  0  0  0  0  0  0  0  0  0
    1.1063    2.1234   -0.0590 C   0  0  0  0  0  0  0  0  0  0  0  0
    0.7981    2.9293    1.2072 C   0  0  0  0  0  0  0  0  0  0  0  0
    0.9833    4.3062    1.0156 O   0  0  0  0  0  0  0  0  0  0  0  0
    0.7536    0.6365    0.1057 C   0  0  0  0  0  0  0  0  0  0  0  0
   -0.6269    0.5660    0.4392 O   0  0  0  0  0  0  0  0  0  0  0  0
   -1.0372   -0.1872    1.5582 C   0  0  0  0  0  0  0  0  0  0  0  0
   -2.4240   -0.0537    1.6297 O   0  0  0  0  0  0  0  0  0  0  0  0
   -3.1060   -0.6141    0.5090 C   0  0  0  0  0  0  0  0  0  0  0  0
   -4.5996   -0.3218    0.7197 C   0  0  0  0  0  0  0  0  0  0  0  0
   -5.3782   -0.7084   -0.3854 O   0  0  0  0  0  0  0  0  0  0  0  0
   -2.8403   -2.1250    0.3938 C   0  0  0  0  0  0  0  0  0  0  0  0
   -3.3828   -2.6635   -0.7859 O   0  0  0  0  0  0  0  0  0  0  0  0
   -1.3291   -2.3947    0.3795 C   0  0  0  0  0  0  0  0  0  0  0  0
   -1.0470   -3.7686    0.5123 O   0  0  0  0  0  0  0  0  0  0  0  0
   -0.6879   -1.6871    1.5750 C   0  0  0  0  0  0  0  0  0  0  0  0
    0.6956   -1.8868    1.6518 O   0  0  0  0  0  0  0  0  0  0  0  0
    1.0203   -0.0811   -1.2416 C   0  0  0  0  0  0  0  0  0  0  0  0
    1.3367   -1.4346   -1.0948 O   0  0  0  0  0  0  0  0  0  0  0  0
    2.1122    0.6455   -2.0612 C   0  0  0  0  0  0  0  0  0  0  0  0
    1.5037    1.5865   -2.9029 O   0  0  0  0  0  0  0  0  0  0  0  0
    4.3856    1.4663    1.2170 H   0  0  0  0  0  0  0  0  0  0  0  0
    5.5463    1.0222   -0.0641 H   0  0  0  0  0  0  0  0  0  0  0  0
    4.9899   -0.2117    1.1060 H   0  0  0  0  0  0  0  0  0  0  0  0
    3.9242    1.8098   -1.6248 H   0  0  0  0  0  0  0  0  0  0  0  0
    0.5215    2.5299   -0.8947 H   0  0  0  0  0  0  0  0  0  0  0  0
    1.4344    2.5632    2.0250 H   0  0  0  0  0  0  0  0  0  0  0  0
   -0.2508    2.7890    1.4728 H   0  0  0  0  0  0  0  0  0  0  0  0
    1.8750    4.4479    0.6646 H   0  0  0  0  0  0  0  0  0  0  0  0
    1.3631    0.1892    0.8959 H   0  0  0  0  0  0  0  0  0  0  0  0
   -0.6418    0.2717    2.4789 H   0  0  0  0  0  0  0  0  0  0  0  0
   -2.7507   -0.1285   -0.4105 H   0  0  0  0  0  0  0  0  0  0  0  0
   -4.7140    0.7405    0.9524 H   0  0  0  0  0  0  0  0  0  0  0  0
   -4.9588   -0.9013    1.5732 H   0  0  0  0  0  0  0  0  0  0  0  0
   -5.2682   -0.0678   -1.1026 H   0  0  0  0  0  0  0  0  0  0  0  0
   -3.2662   -2.6285    1.2781 H   0  0  0  0  0  0  0  0  0  0  0  0
   -4.3181   -2.3972   -0.8440 H   0  0  0  0  0  0  0  0  0  0  0  0
   -0.8990   -2.0096   -0.5537 H   0  0  0  0  0  0  0  0  0  0  0  0
   -1.4784   -4.2402   -0.2147 H   0  0  0  0  0  0  0  0  0  0  0  0
   -1.1683   -2.0825    2.4876 H   0  0  0  0  0  0  0  0  0  0  0  0
    0.8516   -2.8364    1.5212 H   0  0  0  0  0  0  0  0  0  0  0  0
    0.0948   -0.0382   -1.8274 H   0  0  0  0  0  0  0  0  0  0  0  0
    2.1466   -1.5059   -0.5661 H   0  0  0  0  0  0  0  0  0  0  0  0
    2.6442   -0.1219   -2.6398 H   0  0  0  0  0  0  0  0  0  0  0  0
    2.1451    1.9359   -3.5394 H   0  0  0  0  0  0  0  0  0  0  0  0
  1  2  1  0  0  0  0
  2  3  1  0  0  0  0
  3  4  1  0  0  0  0
  4  5  1  0  0  0  0
  5  6  1  0  0  0  0
  6  7  1  0  0  0  0
  5  8  1  0  0  0  0
  8  9  1  0  0  0  0
  9 10  1  0  0  0  0
 10 11  1  0  0  0  0
 11 12  1  0  0  0  0
 12 13  1  0  0  0  0
 13 14  1  0  0  0  0
 12 15  1  0  0  0  0
 15 16  1  0  0  0  0
 15 17  1  0  0  0  0
 17 18  1  0  0  0  0
 10 19  1  0  0  0  0
 17 19  1  0  0  0  0
 19 20  1  0  0  0  0
  8 21  1  0  0  0  0
 21 22  1  0  0  0  0
  3 23  1  0  0  0  0
 21 23  1  0  0  0  0
 23 24  1  0  0  0  0
  1 25  1  0  0  0  0
  1 26  1  0  0  0  0
  1 27  1  0  0  0  0
  3 28  1  0  0  0  0
  5 29  1  0  0  0  0
  6 30  1  0  0  0  0
  6 31  1  0  0  0  0
  7 32  1  0  0  0  0
  8 33  1  0  0  0  0
 10 34  1  0  0  0  0
 12 35  1  0  0  0  0
 13 36  1  0  0  0  0
 13 37  1  0  0  0  0
 14 38  1  0  0  0  0
 15 39  1  0  0  0  0
 16 40  1  0  0  0  0
 17 41  1  0  0  0  0
 18 42  1  0  0  0  0
 19 43  1  0  0  0  0
 20 44  1  0  0  0  0
 21 45  1  0  0  0  0
 22 46  1  0  0  0  0
 23 47  1  0  0  0  0
 24 48  1  0  0  0  0
M  END
