 xtb: 6.7.1 (edcfbbe)
          09212615413D

 48 49  0     0  0            999 V2000
    4.8926    1.2341    0.4769 C   0  0  0  0  0  0  0  0  0  0  0  0
    3.8908    0.5337   -0.2510 O   0  0  0  0  0  0  0  0  0  0  0  0
    3.2110    1.3219   -1.1817 C   0  0  0  0  0  0  0  0  0  0  0  0
    2.4249    2.3095   -0.5660 O   0  0  0  0  0  0  0  0  0  0  0  0
    1.0810    1.9439   -0.2665 C   0  0  0  0  0  0  0  0  0  0  0  0
    0.6423    2.8241    0.9105 C   0  0  0  0  0  0  0  0  0  0  0  0
    0.5903    4.1815    0.5640 O   0  0  0  0  0  0  0  0  0  0  0  0
    0.9347    0.4470    0.0569 C   0  0  0  0  0  0  0  0  0  0  0  0
   -0.4429    0.2423    0.3444 O   0  0  0  0  0  0  0  0  0  0  0  0
   -0.8219   -0.4283    1.5217 C   0  0  0  0  0  0  0  0  0  0  0  0
   -2.1475   -0.0696    1.7793 O   0  0  0  0  0  0  0  0  0  0  0  0
   -3.0482   -0.4387    0.7363 C   0  0  0  0  0  0  0  0  0  0  0  0
   -4.4364    0.0687    1.1567 C   0  0  0  0  0  0  0  0  0  0  0  0
   -5.3907   -0.1024    0.1384 O   0  0  0  0  0  0  0  0  0  0  0  0
   -3.0534   -1.9612    0.5136 C   0  0  0  0  0  0  0  0  0  0  0  0
   -3.8038   -2.3248   -0.6174 O   0  0  0  0  0  0  0  0  0  0  0  0
   -1.6183   -2.4641    0.3022 C   0  0  0  0  0  0  0  0  0  0  0  0
   -1.5528   -3.8683    0.2922 O   0  0  0  0  0  0  0  0  0  0  0  0
   -0.7527   -1.9675    1.4622 C   0  0  0  0  0  0  0  0  0  0  0  0
    0.5748   -2.4151    1.3786 O   0  0  0  0  0  0  0  0  0  0  0  0
    1.3589   -0.3806   -1.1759 C   0  0  0  0  0  0  0  0  0  0  0  0
    1.9476   -1.6089   -0.8586 O   0  0  0  0  0  0  0  0  0  0  0  0
    2.3640    0.3864   -2.0565 C   0  0  0  0  0  0  0  0  0  0  0  0
    1.6586    1.0956   -3.0384 O   0  0  0  0  0  0  0  0  0  0  0  0
    4.4571    2.0737    1.0233 H   0  0  0  0  0  0  0  0  0  0  0  0
    5.6662    1.6030   -0.2029 H   0  0  0  0  0  0  0  0  0  0  0  0
    5.3120    0.5088    1.1677 H   0  0  0  0  0  0  0  0  0  0  0  0
    3.9350    1.8867   -1.7958 H   0  0  0  0  0  0  0  0  0  0  0  0
    0.4470    2.1632   -1.1371 H   0  0  0  0  0  0  0  0  0  0  0  0
    1.3362    2.6645    1.7475 H   0  0  0  0  0  0  0  0  0  0  0  0
   -0.3665    2.5422    1.2166 H   0  0  0  0  0  0  0  0  0  0  0  0
    1.4457    4.4319    0.1850 H   0  0  0  0  0  0  0  0  0  0  0  0
    1.5621    0.1809    0.9146 H   0  0  0  0  0  0  0  0  0  0  0  0
   -0.2314   -0.0696    2.3768 H   0  0  0  0  0  0  0  0  0  0  0  0
   -2.7372    0.0463   -0.1991 H   0  0  0  0  0  0  0  0  0  0  0  0
   -4.3447    1.1140    1.4639 H   0  0  0  0  0  0  0  0  0  0  0  0
   -4.7853   -0.5123    2.0135 H   0  0  0  0  0  0  0  0  0  0  0  0
   -5.2725    0.5794   -0.5383 H   0  0  0  0  0  0  0  0  0  0  0  0
   -3.4553   -2.4523    1.4156 H   0  0  0  0  0  0  0  0  0  0  0  0
   -4.6825   -1.9103   -0.5516 H   0  0  0  0  0  0  0  0  0  0  0  0
   -1.2342   -2.0552   -0.6443 H   0  0  0  0  0  0  0  0  0  0  0  0
   -2.1693   -4.1985   -0.3774 H   0  0  0  0  0  0  0  0  0  0  0  0
   -1.2022   -2.3235    2.4019 H   0  0  0  0  0  0  0  0  0  0  0  0
    0.5515   -3.3861    1.3342 H   0  0  0  0  0  0  0  0  0  0  0  0
    0.4521   -0.5298   -1.7878 H   0  0  0  0  0  0  0  0  0  0  0  0
    1.5166   -1.9759   -0.0580 H   0  0  0  0  0  0  0  0  0  0  0  0
    3.0295   -0.3694   -2.4926 H   0  0  0  0  0  0  0  0  0  0  0  0
    2.2675    1.4288   -3.7139 H   0  0  0  0  0  0  0  0  0  0  0  0
  1  2  1  0  0  0  0
  2  3  1  0  0  0  0
  3  4  1  0  0  0  0
  4  5  1  0  0  0  0
  5  6  1  0  0  0  0
  6  7  1  0  0  0  0
  5  8  1  0  0  0  0
  8  9  1  0  0  0  0
  9 10  1  0  0  0  0
 10 11  1  0  0  0  0
 11 12  1  0  0  0  0
 12 13  1  0  0  0  0
 13 14  1  0  0  0  0
 12 15  1  0  0  0  0
 15 16  1  0  0  0  0
 15 17  1  0  0  0  0
 17 18  1  0  0  0  0
 10 19  1  0  0  0  0
 17 19  1  0  0  0  0
 19 20  1  0  0  0  0
  8 21  1  0  0  0  0
 21 22  1  0  0  0  0
  3 23  1  0  0  0  0
 21 23  1  0  0  0  0
 23 24  1  0  0  0  0
  1 25  1  0  0  0  0
  1 26  1  0  0  0  0
  1 27  1  0  0  0  0
  3 28  1  0  0  0  0
  5 29  1  0  0  0  0
  6 30  1  0  0  0  0
  6 31  1  0  0  0  0
  7 32  1  0  0  0  0
  8 33  1  0  0  0  0
 10 34  1  0  0  0  0
 12 35  1  0  0  0  0
 13 36  1  0  0  0  0
 13 37  1  0  0  0  0
 14 38  1  0  0  0  0
 15 39  1  0  0  0  0
 16 40  1  0  0  0  0
 17 41  1  0  0  0  0
 18 42  1  0  0  0  0
 19 43  1  0  0  0  0
 20 44  1  0  0  0  0
 21 45  1  0  0  0  0
 22 46  1  0  0  0  0
 23 47  1  0  0  0  0
 24 48  1  0  0  0  0
M  END
