 xtb: 6.7.1 (edcfbbe)
          09222613273D

 48 49  0     0  0            999 V2000
    5.6928   -0.4937    0.2370 C   0  0  0  0  0  0  0  0  0  0  0  0
    4.8311    0.5482    0.6527 O   0  0  0  0  0  0  0  0  0  0  0  0
    3.5814    0.1326    1.0551 C   0  0  0  0  0  0  0  0  0  0  0  0
    2.8313   -0.2110   -0.0952 O   0  0  0  0  0  0  0  0  0  0  0  0
    1.5196   -0.6581    0.1841 C   0  0  0  0  0  0  0  0  0  0  0  0
    0.9711   -1.1888   -1.1437 C   0  0  0  0  0  0  0  0  0  0  0  0
    1.8778   -2.0539   -1.7636 O   0  0  0  0  0  0  0  0  0  0  0  0
    0.7012    0.4922    0.7974 C   0  0  0  0  0  0  0  0  0  0  0  0
   -0.6160    0.0796    1.1294 O   0  0  0  0  0  0  0  0  0  0  0  0
   -1.6485    0.9230    0.7000 C   0  0  0  0  0  0  0  0  0  0  0  0
   -1.7257    1.0944   -0.6898 O   0  0  0  0  0  0  0  0  0  0  0  0
   -2.2731    0.0222   -1.4454 C   0  0  0  0  0  0  0  0  0  0  0  0
   -2.4213    0.5358   -2.8863 C   0  0  0  0  0  0  0  0  0  0  0  0
   -2.7706   -0.4940   -3.7799 O   0  0  0  0  0  0  0  0  0  0  0  0
   -3.6135   -0.4833   -0.8919 C   0  0  0  0  0  0  0  0  0  0  0  0
   -4.0431   -1.6412   -1.5641 O   0  0  0  0  0  0  0  0  0  0  0  0
   -3.4316   -0.8326    0.5875 C   0  0  0  0  0  0  0  0  0  0  0  0
   -4.6352   -1.2631    1.1736 O   0  0  0  0  0  0  0  0  0  0  0  0
   -2.9696    0.4305    1.3136 C   0  0  0  0  0  0  0  0  0  0  0  0
   -2.8013    0.2274    2.6821 O   0  0  0  0  0  0  0  0  0  0  0  0
    1.4150    1.0067    2.0587 C   0  0  0  0  0  0  0  0  0  0  0  0
    0.8161    2.1627    2.5917 O   0  0  0  0  0  0  0  0  0  0  0  0
    2.9086    1.2854    1.8069 C   0  0  0  0  0  0  0  0  0  0  0  0
    3.5711    1.4678    3.0270 O   0  0  0  0  0  0  0  0  0  0  0  0
    5.3059   -0.9994   -0.6520 H   0  0  0  0  0  0  0  0  0  0  0  0
    5.8306   -1.2264    1.0394 H   0  0  0  0  0  0  0  0  0  0  0  0
    6.6430   -0.0186    0.0057 H   0  0  0  0  0  0  0  0  0  0  0  0
    3.6424   -0.7482    1.7273 H   0  0  0  0  0  0  0  0  0  0  0  0
    1.5630   -1.4829    0.9143 H   0  0  0  0  0  0  0  0  0  0  0  0
    0.7421   -0.3348   -1.7986 H   0  0  0  0  0  0  0  0  0  0  0  0
    0.0703   -1.7725   -0.9509 H   0  0  0  0  0  0  0  0  0  0  0  0
    2.7449   -1.6298   -1.7174 H   0  0  0  0  0  0  0  0  0  0  0  0
    0.6520    1.3022    0.0529 H   0  0  0  0  0  0  0  0  0  0  0  0
   -1.4603    1.9433    1.0739 H   0  0  0  0  0  0  0  0  0  0  0  0
   -1.5876   -0.8362   -1.4403 H   0  0  0  0  0  0  0  0  0  0  0  0
   -1.4892    1.0293   -3.1823 H   0  0  0  0  0  0  0  0  0  0  0  0
   -3.2290    1.2694   -2.9333 H   0  0  0  0  0  0  0  0  0  0  0  0
   -2.0224   -1.0953   -3.8793 H   0  0  0  0  0  0  0  0  0  0  0  0
   -4.3730    0.3123   -0.9754 H   0  0  0  0  0  0  0  0  0  0  0  0
   -4.0012   -1.4654   -2.5176 H   0  0  0  0  0  0  0  0  0  0  0  0
   -2.6606   -1.6122    0.6859 H   0  0  0  0  0  0  0  0  0  0  0  0
   -5.0234   -1.9131    0.5748 H   0  0  0  0  0  0  0  0  0  0  0  0
   -3.7266    1.2154    1.1357 H   0  0  0  0  0  0  0  0  0  0  0  0
   -3.5238   -0.3475    2.9691 H   0  0  0  0  0  0  0  0  0  0  0  0
    1.3125    0.2506    2.8447 H   0  0  0  0  0  0  0  0  0  0  0  0
    0.8008    2.8538    1.9175 H   0  0  0  0  0  0  0  0  0  0  0  0
    3.0097    2.1842    1.1736 H   0  0  0  0  0  0  0  0  0  0  0  0
    3.0122    2.0328    3.5789 H   0  0  0  0  0  0  0  0  0  0  0  0
  1  2  1  0  0  0  0
  2  3  1  0  0  0  0
  3  4  1  0  0  0  0
  4  5  1  0  0  0  0
  5  6  1  0  0  0  0
  6  7  1  0  0  0  0
  5  8  1  0  0  0  0
  8  9  1  0  0  0  0
  9 10  1  0  0  0  0
 10 11  1  0  0  0  0
 11 12  1  0  0  0  0
 12 13  1  0  0  0  0
 13 14  1  0  0  0  0
 12 15  1  0  0  0  0
 15 16  1  0  0  0  0
 15 17  1  0  0  0  0
 17 18  1  0  0  0  0
 10 19  1  0  0  0  0
 17 19  1  0  0  0  0
 19 20  1  0  0  0  0
  8 21  1  0  0  0  0
 21 22  1  0  0  0  0
  3 23  1  0  0  0  0
 21 23  1  0  0  0  0
 23 24  1  0  0  0  0
  1 25  1  0  0  0  0
  1 26  1  0  0  0  0
  1 27  1  0  0  0  0
  3 28  1  0  0  0  0
  5 29  1  0  0  0  0
  6 30  1  0  0  0  0
  6 31  1  0  0  0  0
  7 32  1  0  0  0  0
  8 33  1  0  0  0  0
 10 34  1  0  0  0  0
 12 35  1  0  0  0  0
 13 36  1  0  0  0  0
 13 37  1  0  0  0  0
 14 38  1  0  0  0  0
 15 39  1  0  0  0  0
 16 40  1  0  0  0  0
 17 41  1  0  0  0  0
 18 42  1  0  0  0  0
 19 43  1  0  0  0  0
 20 44  1  0  0  0  0
 21 45  1  0  0  0  0
 22 46  1  0  0  0  0
 23 47  1  0  0  0  0
 24 48  1  0  0  0  0
M  END
