 xtb: 6.7.1 (edcfbbe)
          09222613263D

 48 49  0     0  0            999 V2000
    5.5620    1.7687   -0.6110 C   0  0  0  0  0  0  0  0  0  0  0  0
    4.8666    0.5881   -0.2606 O   0  0  0  0  0  0  0  0  0  0  0  0
    3.5819    0.5147   -0.7566 C   0  0  0  0  0  0  0  0  0  0  0  0
    2.7654    1.4026   -0.0250 O   0  0  0  0  0  0  0  0  0  0  0  0
    1.4223    1.4592   -0.4672 C   0  0  0  0  0  0  0  0  0  0  0  0
    0.7392    2.5274    0.3925 C   0  0  0  0  0  0  0  0  0  0  0  0
    1.3688    3.7713    0.2563 O   0  0  0  0  0  0  0  0  0  0  0  0
    0.7394    0.0889   -0.3326 C   0  0  0  0  0  0  0  0  0  0  0  0
   -0.5004    0.1207   -1.0261 O   0  0  0  0  0  0  0  0  0  0  0  0
   -1.6573   -0.3422   -0.4004 C   0  0  0  0  0  0  0  0  0  0  0  0
   -1.3941   -0.8068    0.8967 O   0  0  0  0  0  0  0  0  0  0  0  0
   -2.4467   -1.5756    1.4587 C   0  0  0  0  0  0  0  0  0  0  0  0
   -2.4612   -3.0214    0.9144 C   0  0  0  0  0  0  0  0  0  0  0  0
   -1.1958   -3.6114    0.9508 O   0  0  0  0  0  0  0  0  0  0  0  0
   -3.8063   -0.8749    1.2776 C   0  0  0  0  0  0  0  0  0  0  0  0
   -4.6476   -1.0012    2.3959 O   0  0  0  0  0  0  0  0  0  0  0  0
   -3.5638    0.6060    0.9460 C   0  0  0  0  0  0  0  0  0  0  0  0
   -4.7799    1.2986    0.8188 O   0  0  0  0  0  0  0  0  0  0  0  0
   -2.7811    0.7414   -0.3714 C   0  0  0  0  0  0  0  0  0  0  0  0
   -2.2392    2.0234   -0.4947 O   0  0  0  0  0  0  0  0  0  0  0  0
    1.5934   -1.0518   -0.9123 C   0  0  0  0  0  0  0  0  0  0  0  0
    1.1213   -2.3141   -0.4796 O   0  0  0  0  0  0  0  0  0  0  0  0
    3.0876   -0.9255   -0.5783 C   0  0  0  0  0  0  0  0  0  0  0  0
    3.8420   -1.7623   -1.4113 O   0  0  0  0  0  0  0  0  0  0  0  0
    5.0684    2.6552   -0.2036 H   0  0  0  0  0  0  0  0  0  0  0  0
    5.6393    1.8648   -1.6997 H   0  0  0  0  0  0  0  0  0  0  0  0
    6.5546    1.6679   -0.1789 H   0  0  0  0  0  0  0  0  0  0  0  0
    3.5467    0.7798   -1.8338 H   0  0  0  0  0  0  0  0  0  0  0  0
    1.3909    1.7608   -1.5258 H   0  0  0  0  0  0  0  0  0  0  0  0
    0.7659    2.1953    1.4407 H   0  0  0  0  0  0  0  0  0  0  0  0
   -0.2935    2.6458    0.0667 H   0  0  0  0  0  0  0  0  0  0  0  0
    2.3115    3.6278    0.4051 H   0  0  0  0  0  0  0  0  0  0  0  0
    0.5746   -0.1043    0.7332 H   0  0  0  0  0  0  0  0  0  0  0  0
   -2.0357   -1.1802   -1.0181 H   0  0  0  0  0  0  0  0  0  0  0  0
   -2.1873   -1.6127    2.5239 H   0  0  0  0  0  0  0  0  0  0  0  0
   -2.8723   -3.0322   -0.1051 H   0  0  0  0  0  0  0  0  0  0  0  0
   -3.1116   -3.6220    1.5540 H   0  0  0  0  0  0  0  0  0  0  0  0
   -0.6149   -3.1431    0.3316 H   0  0  0  0  0  0  0  0  0  0  0  0
   -4.3698   -1.3303    0.4548 H   0  0  0  0  0  0  0  0  0  0  0  0
   -4.1917   -0.6676    3.1795 H   0  0  0  0  0  0  0  0  0  0  0  0
   -2.9585    1.0581    1.7518 H   0  0  0  0  0  0  0  0  0  0  0  0
   -5.4214    0.8782    1.4087 H   0  0  0  0  0  0  0  0  0  0  0  0
   -3.4752    0.5458   -1.2032 H   0  0  0  0  0  0  0  0  0  0  0  0
   -2.9668    2.6536   -0.4172 H   0  0  0  0  0  0  0  0  0  0  0  0
    1.4682   -1.0544   -2.0008 H   0  0  0  0  0  0  0  0  0  0  0  0
    1.2883   -2.3903    0.4708 H   0  0  0  0  0  0  0  0  0  0  0  0
    3.2491   -1.1857    0.4827 H   0  0  0  0  0  0  0  0  0  0  0  0
    3.4246   -2.6339   -1.4143 H   0  0  0  0  0  0  0  0  0  0  0  0
  1  2  1  0  0  0  0
  2  3  1  0  0  0  0
  3  4  1  0  0  0  0
  4  5  1  0  0  0  0
  5  6  1  0  0  0  0
  6  7  1  0  0  0  0
  5  8  1  0  0  0  0
  8  9  1  0  0  0  0
  9 10  1  0  0  0  0
 10 11  1  0  0  0  0
 11 12  1  0  0  0  0
 12 13  1  0  0  0  0
 13 14  1  0  0  0  0
 12 15  1  0  0  0  0
 15 16  1  0  0  0  0
 15 17  1  0  0  0  0
 17 18  1  0  0  0  0
 10 19  1  0  0  0  0
 17 19  1  0  0  0  0
 19 20  1  0  0  0  0
  8 21  1  0  0  0  0
 21 22  1  0  0  0  0
  3 23  1  0  0  0  0
 21 23  1  0  0  0  0
 23 24  1  0  0  0  0
  1 25  1  0  0  0  0
  1 26  1  0  0  0  0
  1 27  1  0  0  0  0
  3 28  1  0  0  0  0
  5 29  1  0  0  0  0
  6 30  1  0  0  0  0
  6 31  1  0  0  0  0
  7 32  1  0  0  0  0
  8 33  1  0  0  0  0
 10 34  1  0  0  0  0
 12 35  1  0  0  0  0
 13 36  1  0  0  0  0
 13 37  1  0  0  0  0
 14 38  1  0  0  0  0
 15 39  1  0  0  0  0
 16 40  1  0  0  0  0
 17 41  1  0  0  0  0
 18 42  1  0  0  0  0
 19 43  1  0  0  0  0
 20 44  1  0  0  0  0
 21 45  1  0  0  0  0
 22 46  1  0  0  0  0
 23 47  1  0  0  0  0
 24 48  1  0  0  0  0
M  END
