 xtb: 6.7.1 (edcfbbe)
          09212615403D

 48 49  0     0  0            999 V2000
    5.2012    2.5604   -0.8047 C   0  0  0  0  0  0  0  0  0  0  0  0
    4.6061    1.2930   -1.0706 O   0  0  0  0  0  0  0  0  0  0  0  0
    3.2319    1.2475   -0.9222 C   0  0  0  0  0  0  0  0  0  0  0  0
    2.8916    1.4255    0.4366 O   0  0  0  0  0  0  0  0  0  0  0  0
    1.5038    1.3124    0.6855 C   0  0  0  0  0  0  0  0  0  0  0  0
    1.2817    1.6246    2.1723 C   0  0  0  0  0  0  0  0  0  0  0  0
    1.4505    2.9835    2.4703 O   0  0  0  0  0  0  0  0  0  0  0  0
    0.9748   -0.0950    0.3285 C   0  0  0  0  0  0  0  0  0  0  0  0
   -0.4196   -0.0974    0.5646 O   0  0  0  0  0  0  0  0  0  0  0  0
   -0.9781   -1.1139    1.3685 C   0  0  0  0  0  0  0  0  0  0  0  0
   -2.1070   -0.5606    1.9777 O   0  0  0  0  0  0  0  0  0  0  0  0
   -3.0955   -0.1611    1.0259 C   0  0  0  0  0  0  0  0  0  0  0  0
   -4.2830    0.3909    1.8302 C   0  0  0  0  0  0  0  0  0  0  0  0
   -5.2636    0.9637    1.0006 O   0  0  0  0  0  0  0  0  0  0  0  0
   -3.5364   -1.3244    0.1163 C   0  0  0  0  0  0  0  0  0  0  0  0
   -4.3443   -0.8678   -0.9398 O   0  0  0  0  0  0  0  0  0  0  0  0
   -2.3198   -2.0357   -0.4982 C   0  0  0  0  0  0  0  0  0  0  0  0
   -2.6943   -3.2146   -1.1673 O   0  0  0  0  0  0  0  0  0  0  0  0
   -1.3768   -2.4082    0.6439 C   0  0  0  0  0  0  0  0  0  0  0  0
   -0.2393   -3.1215    0.2623 O   0  0  0  0  0  0  0  0  0  0  0  0
    1.2648   -0.2989   -1.1728 C   0  0  0  0  0  0  0  0  0  0  0  0
    0.8297   -1.5489   -1.6208 O   0  0  0  0  0  0  0  0  0  0  0  0
    2.7678   -0.1261   -1.4250 C   0  0  0  0  0  0  0  0  0  0  0  0
    2.9800   -0.2627   -2.8051 O   0  0  0  0  0  0  0  0  0  0  0  0
    5.1012    2.8162    0.2501 H   0  0  0  0  0  0  0  0  0  0  0  0
    4.7361    3.3346   -1.4206 H   0  0  0  0  0  0  0  0  0  0  0  0
    6.2489    2.4466   -1.0669 H   0  0  0  0  0  0  0  0  0  0  0  0
    2.7418    2.0439   -1.5234 H   0  0  0  0  0  0  0  0  0  0  0  0
    0.9525    2.0468    0.0795 H   0  0  0  0  0  0  0  0  0  0  0  0
    1.9652    1.0031    2.7629 H   0  0  0  0  0  0  0  0  0  0  0  0
    0.2498    1.3798    2.4296 H   0  0  0  0  0  0  0  0  0  0  0  0
    2.3687    3.2319    2.2931 H   0  0  0  0  0  0  0  0  0  0  0  0
    1.4730   -0.8711    0.9157 H   0  0  0  0  0  0  0  0  0  0  0  0
   -0.2854   -1.3674    2.1849 H   0  0  0  0  0  0  0  0  0  0  0  0
   -2.6742    0.6259    0.3848 H   0  0  0  0  0  0  0  0  0  0  0  0
   -3.9014    1.1026    2.5674 H   0  0  0  0  0  0  0  0  0  0  0  0
   -4.7656   -0.4311    2.3637 H   0  0  0  0  0  0  0  0  0  0  0  0
   -4.9684    1.8357    0.7012 H   0  0  0  0  0  0  0  0  0  0  0  0
   -4.0830   -2.0654    0.7235 H   0  0  0  0  0  0  0  0  0  0  0  0
   -5.0724   -0.3419   -0.5625 H   0  0  0  0  0  0  0  0  0  0  0  0
   -1.8005   -1.3521   -1.1839 H   0  0  0  0  0  0  0  0  0  0  0  0
   -3.3561   -2.9865   -1.8368 H   0  0  0  0  0  0  0  0  0  0  0  0
   -1.9511   -3.0009    1.3794 H   0  0  0  0  0  0  0  0  0  0  0  0
   -0.4967   -3.7426   -0.4365 H   0  0  0  0  0  0  0  0  0  0  0  0
    0.7282    0.4938   -1.7236 H   0  0  0  0  0  0  0  0  0  0  0  0
    1.2188   -1.6966   -2.4986 H   0  0  0  0  0  0  0  0  0  0  0  0
    3.3177   -0.8949   -0.8633 H   0  0  0  0  0  0  0  0  0  0  0  0
    3.9265   -0.1751   -2.9930 H   0  0  0  0  0  0  0  0  0  0  0  0
  1  2  1  0  0  0  0
  2  3  1  0  0  0  0
  3  4  1  0  0  0  0
  4  5  1  0  0  0  0
  5  6  1  0  0  0  0
  6  7  1  0  0  0  0
  5  8  1  0  0  0  0
  8  9  1  0  0  0  0
  9 10  1  0  0  0  0
 10 11  1  0  0  0  0
 11 12  1  0  0  0  0
 12 13  1  0  0  0  0
 13 14  1  0  0  0  0
 12 15  1  0  0  0  0
 15 16  1  0  0  0  0
 15 17  1  0  0  0  0
 17 18  1  0  0  0  0
 10 19  1  0  0  0  0
 17 19  1  0  0  0  0
 19 20  1  0  0  0  0
  8 21  1  0  0  0  0
 21 22  1  0  0  0  0
  3 23  1  0  0  0  0
 21 23  1  0  0  0  0
 23 24  1  0  0  0  0
  1 25  1  0  0  0  0
  1 26  1  0  0  0  0
  1 27  1  0  0  0  0
  3 28  1  0  0  0  0
  5 29  1  0  0  0  0
  6 30  1  0  0  0  0
  6 31  1  0  0  0  0
  7 32  1  0  0  0  0
  8 33  1  0  0  0  0
 10 34  1  0  0  0  0
 12 35  1  0  0  0  0
 13 36  1  0  0  0  0
 13 37  1  0  0  0  0
 14 38  1  0  0  0  0
 15 39  1  0  0  0  0
 16 40  1  0  0  0  0
 17 41  1  0  0  0  0
 18 42  1  0  0  0  0
 19 43  1  0  0  0  0
 20 44  1  0  0  0  0
 21 45  1  0  0  0  0
 22 46  1  0  0  0  0
 23 47  1  0  0  0  0
 24 48  1  0  0  0  0
M  END
