 xtb: 6.7.1 (edcfbbe)
          09222613083D

 48 49  0     0  0            999 V2000
    4.1582    1.4908    0.6123 C   0  0  0  0  0  0  0  0  0  0  0  0
    3.4787    0.2589    0.4077 O   0  0  0  0  0  0  0  0  0  0  0  0
    3.5855   -0.2456   -0.8906 C   0  0  0  0  0  0  0  0  0  0  0  0
    2.9227    0.5396   -1.8472 O   0  0  0  0  0  0  0  0  0  0  0  0
    1.4974    0.4292   -1.9130 C   0  0  0  0  0  0  0  0  0  0  0  0
    0.9528    1.8536   -2.0923 C   0  0  0  0  0  0  0  0  0  0  0  0
    1.4393    2.4498   -3.2633 O   0  0  0  0  0  0  0  0  0  0  0  0
    0.8806   -0.2677   -0.6938 C   0  0  0  0  0  0  0  0  0  0  0  0
   -0.4965   -0.4895   -1.0105 O   0  0  0  0  0  0  0  0  0  0  0  0
   -1.5021   -0.1365   -0.1248 C   0  0  0  0  0  0  0  0  0  0  0  0
   -1.6120   -1.1403    0.8717 O   0  0  0  0  0  0  0  0  0  0  0  0
   -2.7487   -1.0269    1.7323 C   0  0  0  0  0  0  0  0  0  0  0  0
   -3.5898   -2.3086    1.6030 C   0  0  0  0  0  0  0  0  0  0  0  0
   -2.9286   -3.4277    2.1274 O   0  0  0  0  0  0  0  0  0  0  0  0
   -3.6201    0.2107    1.4566 C   0  0  0  0  0  0  0  0  0  0  0  0
   -4.5856    0.3828    2.4597 O   0  0  0  0  0  0  0  0  0  0  0  0
   -2.7792    1.4943    1.2530 C   0  0  0  0  0  0  0  0  0  0  0  0
   -3.4428    2.3941    0.4025 O   0  0  0  0  0  0  0  0  0  0  0  0
   -1.3953    1.1999    0.6290 C   0  0  0  0  0  0  0  0  0  0  0  0
   -0.3992    1.1532    1.6179 O   0  0  0  0  0  0  0  0  0  0  0  0
    1.5686   -1.6092   -0.3462 C   0  0  0  0  0  0  0  0  0  0  0  0
    1.5455   -1.8361    1.0379 O   0  0  0  0  0  0  0  0  0  0  0  0
    3.0204   -1.6711   -0.8802 C   0  0  0  0  0  0  0  0  0  0  0  0
    3.1408   -2.2787   -2.1356 O   0  0  0  0  0  0  0  0  0  0  0  0
    3.7738    2.2624   -0.0584 H   0  0  0  0  0  0  0  0  0  0  0  0
    5.2316    1.3643    0.4447 H   0  0  0  0  0  0  0  0  0  0  0  0
    3.9689    1.7676    1.6458 H   0  0  0  0  0  0  0  0  0  0  0  0
    4.6362   -0.2387   -1.2251 H   0  0  0  0  0  0  0  0  0  0  0  0
    1.2286   -0.1490   -2.8098 H   0  0  0  0  0  0  0  0  0  0  0  0
    1.2203    2.4532   -1.2097 H   0  0  0  0  0  0  0  0  0  0  0  0
   -0.1337    1.8152   -2.1901 H   0  0  0  0  0  0  0  0  0  0  0  0
    2.4029    2.3644   -3.2657 H   0  0  0  0  0  0  0  0  0  0  0  0
    0.9796    0.3984    0.1684 H   0  0  0  0  0  0  0  0  0  0  0  0
   -2.3997   -0.1196   -0.7619 H   0  0  0  0  0  0  0  0  0  0  0  0
   -2.3663   -0.9784    2.7635 H   0  0  0  0  0  0  0  0  0  0  0  0
   -3.8371   -2.4599    0.5429 H   0  0  0  0  0  0  0  0  0  0  0  0
   -4.5139   -2.1944    2.1738 H   0  0  0  0  0  0  0  0  0  0  0  0
   -2.0703   -3.5028    1.6895 H   0  0  0  0  0  0  0  0  0  0  0  0
   -4.2016    0.0401    0.5427 H   0  0  0  0  0  0  0  0  0  0  0  0
   -4.1578    0.4845    3.3217 H   0  0  0  0  0  0  0  0  0  0  0  0
   -2.5955    1.9620    2.2346 H   0  0  0  0  0  0  0  0  0  0  0  0
   -4.3176    2.5883    0.7677 H   0  0  0  0  0  0  0  0  0  0  0  0
   -1.1506    2.0226   -0.0475 H   0  0  0  0  0  0  0  0  0  0  0  0
   -0.4031    0.2629    2.0067 H   0  0  0  0  0  0  0  0  0  0  0  0
    0.9910   -2.4211   -0.8006 H   0  0  0  0  0  0  0  0  0  0  0  0
    2.1364   -1.1924    1.4569 H   0  0  0  0  0  0  0  0  0  0  0  0
    3.6018   -2.2916   -0.1902 H   0  0  0  0  0  0  0  0  0  0  0  0
    2.8852   -1.6569   -2.8302 H   0  0  0  0  0  0  0  0  0  0  0  0
  1  2  1  0  0  0  0
  2  3  1  0  0  0  0
  3  4  1  0  0  0  0
  4  5  1  0  0  0  0
  5  6  1  0  0  0  0
  6  7  1  0  0  0  0
  5  8  1  0  0  0  0
  8  9  1  0  0  0  0
  9 10  1  0  0  0  0
 10 11  1  0  0  0  0
 11 12  1  0  0  0  0
 12 13  1  0  0  0  0
 13 14  1  0  0  0  0
 12 15  1  0  0  0  0
 15 16  1  0  0  0  0
 15 17  1  0  0  0  0
 17 18  1  0  0  0  0
 10 19  1  0  0  0  0
 17 19  1  0  0  0  0
 19 20  1  0  0  0  0
  8 21  1  0  0  0  0
 21 22  1  0  0  0  0
  3 23  1  0  0  0  0
 21 23  1  0  0  0  0
 23 24  1  0  0  0  0
  1 25  1  0  0  0  0
  1 26  1  0  0  0  0
  1 27  1  0  0  0  0
  3 28  1  0  0  0  0
  5 29  1  0  0  0  0
  6 30  1  0  0  0  0
  6 31  1  0  0  0  0
  7 32  1  0  0  0  0
  8 33  1  0  0  0  0
 10 34  1  0  0  0  0
 12 35  1  0  0  0  0
 13 36  1  0  0  0  0
 13 37  1  0  0  0  0
 14 38  1  0  0  0  0
 15 39  1  0  0  0  0
 16 40  1  0  0  0  0
 17 41  1  0  0  0  0
 18 42  1  0  0  0  0
 19 43  1  0  0  0  0
 20 44  1  0  0  0  0
 21 45  1  0  0  0  0
 22 46  1  0  0  0  0
 23 47  1  0  0  0  0
 24 48  1  0  0  0  0
M  END
