 xtb: 6.7.1 (edcfbbe)
          09222613233D

 48 49  0     0  0            999 V2000
    5.6490    0.7267    0.2804 C   0  0  0  0  0  0  0  0  0  0  0  0
    4.4859    1.0513   -0.4560 O   0  0  0  0  0  0  0  0  0  0  0  0
    3.3115    0.9346    0.2564 C   0  0  0  0  0  0  0  0  0  0  0  0
    3.0143   -0.4331    0.4301 O   0  0  0  0  0  0  0  0  0  0  0  0
    1.8508   -0.6590    1.1961 C   0  0  0  0  0  0  0  0  0  0  0  0
    1.8025   -2.1685    1.4553 C   0  0  0  0  0  0  0  0  0  0  0  0
    2.9388   -2.5896    2.1573 O   0  0  0  0  0  0  0  0  0  0  0  0
    0.5769   -0.1225    0.5021 C   0  0  0  0  0  0  0  0  0  0  0  0
   -0.4296   -0.1859    1.5050 O   0  0  0  0  0  0  0  0  0  0  0  0
   -1.7142   -0.7308    1.3938 C   0  0  0  0  0  0  0  0  0  0  0  0
   -2.7157    0.2386    1.2184 O   0  0  0  0  0  0  0  0  0  0  0  0
   -2.9602    0.7667   -0.0820 C   0  0  0  0  0  0  0  0  0  0  0  0
   -4.0999    1.7753    0.1236 C   0  0  0  0  0  0  0  0  0  0  0  0
   -3.7121    2.8140    0.9727 O   0  0  0  0  0  0  0  0  0  0  0  0
   -3.3389   -0.3596   -1.0508 C   0  0  0  0  0  0  0  0  0  0  0  0
   -3.4525    0.0717   -2.3891 O   0  0  0  0  0  0  0  0  0  0  0  0
   -2.2302   -1.4134   -1.0342 C   0  0  0  0  0  0  0  0  0  0  0  0
   -2.5875   -2.5559   -1.7765 O   0  0  0  0  0  0  0  0  0  0  0  0
   -1.9568   -1.8901    0.3995 C   0  0  0  0  0  0  0  0  0  0  0  0
   -0.8976   -2.8031    0.4327 O   0  0  0  0  0  0  0  0  0  0  0  0
    0.7960    1.3279    0.0256 C   0  0  0  0  0  0  0  0  0  0  0  0
   -0.1502    1.7392   -0.9402 O   0  0  0  0  0  0  0  0  0  0  0  0
    2.1972    1.6017   -0.5528 C   0  0  0  0  0  0  0  0  0  0  0  0
    2.4326    2.9818   -0.5839 O   0  0  0  0  0  0  0  0  0  0  0  0
    5.6459   -0.3241    0.5821 H   0  0  0  0  0  0  0  0  0  0  0  0
    5.7337    1.3595    1.1706 H   0  0  0  0  0  0  0  0  0  0  0  0
    6.4862    0.9163   -0.3870 H   0  0  0  0  0  0  0  0  0  0  0  0
    3.3882    1.4265    1.2484 H   0  0  0  0  0  0  0  0  0  0  0  0
    1.9377   -0.1324    2.1606 H   0  0  0  0  0  0  0  0  0  0  0  0
    1.7227   -2.6888    0.4926 H   0  0  0  0  0  0  0  0  0  0  0  0
    0.9339   -2.4132    2.0641 H   0  0  0  0  0  0  0  0  0  0  0  0
    3.7068   -2.2729    1.6660 H   0  0  0  0  0  0  0  0  0  0  0  0
    0.3492   -0.7700   -0.3500 H   0  0  0  0  0  0  0  0  0  0  0  0
   -1.9048   -1.1047    2.4091 H   0  0  0  0  0  0  0  0  0  0  0  0
   -2.0758    1.2974   -0.4536 H   0  0  0  0  0  0  0  0  0  0  0  0
   -4.9698    1.2401    0.5346 H   0  0  0  0  0  0  0  0  0  0  0  0
   -4.3776    2.2437   -0.8243 H   0  0  0  0  0  0  0  0  0  0  0  0
   -3.2853    2.4096    1.7389 H   0  0  0  0  0  0  0  0  0  0  0  0
   -4.2781   -0.8291   -0.7150 H   0  0  0  0  0  0  0  0  0  0  0  0
   -4.1087    0.7735   -2.4458 H   0  0  0  0  0  0  0  0  0  0  0  0
   -1.3313   -0.9597   -1.4776 H   0  0  0  0  0  0  0  0  0  0  0  0
   -2.9411   -2.2511   -2.6210 H   0  0  0  0  0  0  0  0  0  0  0  0
   -2.8871   -2.3787    0.7383 H   0  0  0  0  0  0  0  0  0  0  0  0
   -1.0939   -3.4827   -0.2266 H   0  0  0  0  0  0  0  0  0  0  0  0
    0.6328    1.9871    0.8857 H   0  0  0  0  0  0  0  0  0  0  0  0
   -0.0014    1.2496   -1.7602 H   0  0  0  0  0  0  0  0  0  0  0  0
    2.2564    1.1758   -1.5704 H   0  0  0  0  0  0  0  0  0  0  0  0
    1.6512    3.4100   -0.9599 H   0  0  0  0  0  0  0  0  0  0  0  0
  1  2  1  0  0  0  0
  2  3  1  0  0  0  0
  3  4  1  0  0  0  0
  4  5  1  0  0  0  0
  5  6  1  0  0  0  0
  6  7  1  0  0  0  0
  5  8  1  0  0  0  0
  8  9  1  0  0  0  0
  9 10  1  0  0  0  0
 10 11  1  0  0  0  0
 11 12  1  0  0  0  0
 12 13  1  0  0  0  0
 13 14  1  0  0  0  0
 12 15  1  0  0  0  0
 15 16  1  0  0  0  0
 15 17  1  0  0  0  0
 17 18  1  0  0  0  0
 10 19  1  0  0  0  0
 17 19  1  0  0  0  0
 19 20  1  0  0  0  0
  8 21  1  0  0  0  0
 21 22  1  0  0  0  0
  3 23  1  0  0  0  0
 21 23  1  0  0  0  0
 23 24  1  0  0  0  0
  1 25  1  0  0  0  0
  1 26  1  0  0  0  0
  1 27  1  0  0  0  0
  3 28  1  0  0  0  0
  5 29  1  0  0  0  0
  6 30  1  0  0  0  0
  6 31  1  0  0  0  0
  7 32  1  0  0  0  0
  8 33  1  0  0  0  0
 10 34  1  0  0  0  0
 12 35  1  0  0  0  0
 13 36  1  0  0  0  0
 13 37  1  0  0  0  0
 14 38  1  0  0  0  0
 15 39  1  0  0  0  0
 16 40  1  0  0  0  0
 17 41  1  0  0  0  0
 18 42  1  0  0  0  0
 19 43  1  0  0  0  0
 20 44  1  0  0  0  0
 21 45  1  0  0  0  0
 22 46  1  0  0  0  0
 23 47  1  0  0  0  0
 24 48  1  0  0  0  0
M  END
