 xtb: 6.7.1 (edcfbbe)
          09212615503D

 48 49  0     0  0            999 V2000
    5.6278   -0.4595   -0.0406 C   0  0  0  0  0  0  0  0  0  0  0  0
    4.7568    0.6067    0.3247 O   0  0  0  0  0  0  0  0  0  0  0  0
    3.5671    0.2162    0.9058 C   0  0  0  0  0  0  0  0  0  0  0  0
    2.7390   -0.3432   -0.0946 O   0  0  0  0  0  0  0  0  0  0  0  0
    1.4622   -0.7430    0.3730 C   0  0  0  0  0  0  0  0  0  0  0  0
    0.8021   -1.5115   -0.7712 C   0  0  0  0  0  0  0  0  0  0  0  0
    1.4690   -2.7098   -1.0556 O   0  0  0  0  0  0  0  0  0  0  0  0
    0.6766    0.4892    0.8585 C   0  0  0  0  0  0  0  0  0  0  0  0
   -0.5933    0.1090    1.3690 O   0  0  0  0  0  0  0  0  0  0  0  0
   -1.7219    0.8397    0.9309 C   0  0  0  0  0  0  0  0  0  0  0  0
   -1.7454    1.1773   -0.4198 O   0  0  0  0  0  0  0  0  0  0  0  0
   -2.2149    0.2282   -1.3811 C   0  0  0  0  0  0  0  0  0  0  0  0
   -2.5412    1.0478   -2.6448 C   0  0  0  0  0  0  0  0  0  0  0  0
   -2.9189    0.2277   -3.7216 O   0  0  0  0  0  0  0  0  0  0  0  0
   -3.4469   -0.5695   -0.9254 C   0  0  0  0  0  0  0  0  0  0  0  0
   -3.6776   -1.6653   -1.7738 O   0  0  0  0  0  0  0  0  0  0  0  0
   -3.2299   -1.1079    0.4919 C   0  0  0  0  0  0  0  0  0  0  0  0
   -4.3642   -1.7844    0.9706 O   0  0  0  0  0  0  0  0  0  0  0  0
   -2.9741    0.0888    1.4077 C   0  0  0  0  0  0  0  0  0  0  0  0
   -2.8054   -0.2735    2.7460 O   0  0  0  0  0  0  0  0  0  0  0  0
    1.4754    1.2075    1.9584 C   0  0  0  0  0  0  0  0  0  0  0  0
    0.8725    2.4130    2.3586 O   0  0  0  0  0  0  0  0  0  0  0  0
    2.9299    1.4640    1.5296 C   0  0  0  0  0  0  0  0  0  0  0  0
    3.7165    1.8305    2.6308 O   0  0  0  0  0  0  0  0  0  0  0  0
    5.1854   -1.0625   -0.8347 H   0  0  0  0  0  0  0  0  0  0  0  0
    5.8454   -1.0876    0.8274 H   0  0  0  0  0  0  0  0  0  0  0  0
    6.5355    0.0208   -0.3941 H   0  0  0  0  0  0  0  0  0  0  0  0
    3.7363   -0.5355    1.7040 H   0  0  0  0  0  0  0  0  0  0  0  0
    1.5824   -1.4272    1.2291 H   0  0  0  0  0  0  0  0  0  0  0  0
    0.7778   -0.8630   -1.6560 H   0  0  0  0  0  0  0  0  0  0  0  0
   -0.2064   -1.7936   -0.4673 H   0  0  0  0  0  0  0  0  0  0  0  0
    2.3886   -2.5066   -1.2788 H   0  0  0  0  0  0  0  0  0  0  0  0
    0.5347    1.1700    0.0065 H   0  0  0  0  0  0  0  0  0  0  0  0
   -1.6965    1.8209    1.4386 H   0  0  0  0  0  0  0  0  0  0  0  0
   -1.4257   -0.4982   -1.6110 H   0  0  0  0  0  0  0  0  0  0  0  0
   -1.6801    1.6760   -2.8881 H   0  0  0  0  0  0  0  0  0  0  0  0
   -3.3918    1.6997   -2.4323 H   0  0  0  0  0  0  0  0  0  0  0  0
   -2.1334   -0.1538   -4.1385 H   0  0  0  0  0  0  0  0  0  0  0  0
   -4.3288    0.0910   -0.9047 H   0  0  0  0  0  0  0  0  0  0  0  0
   -3.7991   -1.3307   -2.6802 H   0  0  0  0  0  0  0  0  0  0  0  0
   -2.3537   -1.7737    0.5073 H   0  0  0  0  0  0  0  0  0  0  0  0
   -4.6206   -2.4505    0.3147 H   0  0  0  0  0  0  0  0  0  0  0  0
   -3.8307    0.7774    1.3094 H   0  0  0  0  0  0  0  0  0  0  0  0
   -3.4886   -0.9299    2.9616 H   0  0  0  0  0  0  0  0  0  0  0  0
    1.4664    0.5749    2.8527 H   0  0  0  0  0  0  0  0  0  0  0  0
    0.8333    3.0250    1.6077 H   0  0  0  0  0  0  0  0  0  0  0  0
    2.9549    2.2519    0.7591 H   0  0  0  0  0  0  0  0  0  0  0  0
    3.2538    2.5271    3.1246 H   0  0  0  0  0  0  0  0  0  0  0  0
  1  2  1  0  0  0  0
  2  3  1  0  0  0  0
  3  4  1  0  0  0  0
  4  5  1  0  0  0  0
  5  6  1  0  0  0  0
  6  7  1  0  0  0  0
  5  8  1  0  0  0  0
  8  9  1  0  0  0  0
  9 10  1  0  0  0  0
 10 11  1  0  0  0  0
 11 12  1  0  0  0  0
 12 13  1  0  0  0  0
 13 14  1  0  0  0  0
 12 15  1  0  0  0  0
 15 16  1  0  0  0  0
 15 17  1  0  0  0  0
 17 18  1  0  0  0  0
 10 19  1  0  0  0  0
 17 19  1  0  0  0  0
 19 20  1  0  0  0  0
  8 21  1  0  0  0  0
 21 22  1  0  0  0  0
  3 23  1  0  0  0  0
 21 23  1  0  0  0  0
 23 24  1  0  0  0  0
  1 25  1  0  0  0  0
  1 26  1  0  0  0  0
  1 27  1  0  0  0  0
  3 28  1  0  0  0  0
  5 29  1  0  0  0  0
  6 30  1  0  0  0  0
  6 31  1  0  0  0  0
  7 32  1  0  0  0  0
  8 33  1  0  0  0  0
 10 34  1  0  0  0  0
 12 35  1  0  0  0  0
 13 36  1  0  0  0  0
 13 37  1  0  0  0  0
 14 38  1  0  0  0  0
 15 39  1  0  0  0  0
 16 40  1  0  0  0  0
 17 41  1  0  0  0  0
 18 42  1  0  0  0  0
 19 43  1  0  0  0  0
 20 44  1  0  0  0  0
 21 45  1  0  0  0  0
 22 46  1  0  0  0  0
 23 47  1  0  0  0  0
 24 48  1  0  0  0  0
M  END
