 xtb: 6.7.1 (edcfbbe)
          09222613113D

 48 49  0     0  0            999 V2000
    5.6210   -0.4535    0.0187 C   0  0  0  0  0  0  0  0  0  0  0  0
    4.7524    0.6211    0.3541 O   0  0  0  0  0  0  0  0  0  0  0  0
    3.5576    0.2429    0.9289 C   0  0  0  0  0  0  0  0  0  0  0  0
    2.7358   -0.3289   -0.0700 O   0  0  0  0  0  0  0  0  0  0  0  0
    1.4600   -0.7329    0.3907 C   0  0  0  0  0  0  0  0  0  0  0  0
    0.8245   -1.5180   -0.7569 C   0  0  0  0  0  0  0  0  0  0  0  0
    1.5442   -2.6828   -1.0484 O   0  0  0  0  0  0  0  0  0  0  0  0
    0.6616    0.4968    0.8623 C   0  0  0  0  0  0  0  0  0  0  0  0
   -0.6085    0.1157    1.3671 O   0  0  0  0  0  0  0  0  0  0  0  0
   -1.7351    0.8385    0.9168 C   0  0  0  0  0  0  0  0  0  0  0  0
   -1.7537    1.1678   -0.4368 O   0  0  0  0  0  0  0  0  0  0  0  0
   -2.1996    0.2021   -1.3892 C   0  0  0  0  0  0  0  0  0  0  0  0
   -2.4866    0.9898   -2.6824 C   0  0  0  0  0  0  0  0  0  0  0  0
   -2.8325    0.1429   -3.7489 O   0  0  0  0  0  0  0  0  0  0  0  0
   -3.4475   -0.5765   -0.9443 C   0  0  0  0  0  0  0  0  0  0  0  0
   -3.6881   -1.6728   -1.7884 O   0  0  0  0  0  0  0  0  0  0  0  0
   -3.2455   -1.1083    0.4773 C   0  0  0  0  0  0  0  0  0  0  0  0
   -4.3854   -1.7812    0.9477 O   0  0  0  0  0  0  0  0  0  0  0  0
   -2.9928    0.0919    1.3890 C   0  0  0  0  0  0  0  0  0  0  0  0
   -2.8427   -0.2663    2.7303 O   0  0  0  0  0  0  0  0  0  0  0  0
    1.4546    1.2291    1.9575 C   0  0  0  0  0  0  0  0  0  0  0  0
    0.8452    2.4335    2.3512 O   0  0  0  0  0  0  0  0  0  0  0  0
    2.9072    1.4967    1.5266 C   0  0  0  0  0  0  0  0  0  0  0  0
    3.6791    1.9008    2.6248 O   0  0  0  0  0  0  0  0  0  0  0  0
    5.1827   -1.0799   -0.7609 H   0  0  0  0  0  0  0  0  0  0  0  0
    5.8382   -1.0616    0.9022 H   0  0  0  0  0  0  0  0  0  0  0  0
    6.5324    0.0126   -0.3461 H   0  0  0  0  0  0  0  0  0  0  0  0
    3.7152   -0.4984    1.7411 H   0  0  0  0  0  0  0  0  0  0  0  0
    1.5771   -1.4101    1.2538 H   0  0  0  0  0  0  0  0  0  0  0  0
    0.7754   -0.8647   -1.6385 H   0  0  0  0  0  0  0  0  0  0  0  0
   -0.1728   -1.8424   -0.4574 H   0  0  0  0  0  0  0  0  0  0  0  0
    2.4610   -2.4316   -1.2233 H   0  0  0  0  0  0  0  0  0  0  0  0
    0.5247    1.1708    0.0030 H   0  0  0  0  0  0  0  0  0  0  0  0
   -1.7185    1.8254    1.4162 H   0  0  0  0  0  0  0  0  0  0  0  0
   -1.4097   -0.5355   -1.5805 H   0  0  0  0  0  0  0  0  0  0  0  0
   -1.6172    1.6112   -2.9165 H   0  0  0  0  0  0  0  0  0  0  0  0
   -3.3428    1.6473   -2.5145 H   0  0  0  0  0  0  0  0  0  0  0  0
   -2.0385   -0.2739   -4.1086 H   0  0  0  0  0  0  0  0  0  0  0  0
   -4.3195    0.0987   -0.9346 H   0  0  0  0  0  0  0  0  0  0  0  0
   -3.7601   -1.3402   -2.6996 H   0  0  0  0  0  0  0  0  0  0  0  0
   -2.3710   -1.7773    0.5023 H   0  0  0  0  0  0  0  0  0  0  0  0
   -4.6531   -2.4189    0.2712 H   0  0  0  0  0  0  0  0  0  0  0  0
   -3.8467    0.7838    1.2775 H   0  0  0  0  0  0  0  0  0  0  0  0
   -3.5109   -0.9414    2.9239 H   0  0  0  0  0  0  0  0  0  0  0  0
    1.4529    0.6033    2.8572 H   0  0  0  0  0  0  0  0  0  0  0  0
    0.7712    3.0253    1.5891 H   0  0  0  0  0  0  0  0  0  0  0  0
    2.9211    2.2700    0.7398 H   0  0  0  0  0  0  0  0  0  0  0  0
    3.1838    2.5789    3.1091 H   0  0  0  0  0  0  0  0  0  0  0  0
  1  2  1  0  0  0  0
  2  3  1  0  0  0  0
  3  4  1  0  0  0  0
  4  5  1  0  0  0  0
  5  6  1  0  0  0  0
  6  7  1  0  0  0  0
  5  8  1  0  0  0  0
  8  9  1  0  0  0  0
  9 10  1  0  0  0  0
 10 11  1  0  0  0  0
 11 12  1  0  0  0  0
 12 13  1  0  0  0  0
 13 14  1  0  0  0  0
 12 15  1  0  0  0  0
 15 16  1  0  0  0  0
 15 17  1  0  0  0  0
 17 18  1  0  0  0  0
 10 19  1  0  0  0  0
 17 19  1  0  0  0  0
 19 20  1  0  0  0  0
  8 21  1  0  0  0  0
 21 22  1  0  0  0  0
  3 23  1  0  0  0  0
 21 23  1  0  0  0  0
 23 24  1  0  0  0  0
  1 25  1  0  0  0  0
  1 26  1  0  0  0  0
  1 27  1  0  0  0  0
  3 28  1  0  0  0  0
  5 29  1  0  0  0  0
  6 30  1  0  0  0  0
  6 31  1  0  0  0  0
  7 32  1  0  0  0  0
  8 33  1  0  0  0  0
 10 34  1  0  0  0  0
 12 35  1  0  0  0  0
 13 36  1  0  0  0  0
 13 37  1  0  0  0  0
 14 38  1  0  0  0  0
 15 39  1  0  0  0  0
 16 40  1  0  0  0  0
 17 41  1  0  0  0  0
 18 42  1  0  0  0  0
 19 43  1  0  0  0  0
 20 44  1  0  0  0  0
 21 45  1  0  0  0  0
 22 46  1  0  0  0  0
 23 47  1  0  0  0  0
 24 48  1  0  0  0  0
M  END
