 xtb: 6.7.1 (edcfbbe)
          09222612583D

 48 49  0     0  0            999 V2000
    5.6127    0.1315   -1.0205 C   0  0  0  0  0  0  0  0  0  0  0  0
    4.8507    0.9451   -0.1382 O   0  0  0  0  0  0  0  0  0  0  0  0
    3.6256    0.4216    0.2165 C   0  0  0  0  0  0  0  0  0  0  0  0
    2.7555    0.5113   -0.8934 O   0  0  0  0  0  0  0  0  0  0  0  0
    1.4508    0.0114   -0.6741 C   0  0  0  0  0  0  0  0  0  0  0  0
    0.7365    0.1517   -2.0259 C   0  0  0  0  0  0  0  0  0  0  0  0
    1.2312   -0.7516   -2.9741 O   0  0  0  0  0  0  0  0  0  0  0  0
    0.7323    0.7756    0.4565 C   0  0  0  0  0  0  0  0  0  0  0  0
   -0.4687    0.1093    0.8209 O   0  0  0  0  0  0  0  0  0  0  0  0
   -1.6810    0.7955    0.6934 C   0  0  0  0  0  0  0  0  0  0  0  0
   -2.2836    0.6121   -0.5586 O   0  0  0  0  0  0  0  0  0  0  0  0
   -2.6899   -0.7284   -0.8461 C   0  0  0  0  0  0  0  0  0  0  0  0
   -3.4539   -0.6790   -2.1782 C   0  0  0  0  0  0  0  0  0  0  0  0
   -2.6588   -0.2505   -3.2484 O   0  0  0  0  0  0  0  0  0  0  0  0
   -3.5781   -1.3286    0.2551 C   0  0  0  0  0  0  0  0  0  0  0  0
   -3.8716   -2.6800    0.0161 O   0  0  0  0  0  0  0  0  0  0  0  0
   -2.9235   -1.1392    1.6313 C   0  0  0  0  0  0  0  0  0  0  0  0
   -3.7749   -1.5617    2.6691 O   0  0  0  0  0  0  0  0  0  0  0  0
   -2.6279    0.3490    1.8197 C   0  0  0  0  0  0  0  0  0  0  0  0
   -2.0463    0.6411    3.0550 O   0  0  0  0  0  0  0  0  0  0  0  0
    1.6302    0.8196    1.7090 C   0  0  0  0  0  0  0  0  0  0  0  0
    1.1177    1.6350    2.7291 O   0  0  0  0  0  0  0  0  0  0  0  0
    3.0735    1.2422    1.3856 C   0  0  0  0  0  0  0  0  0  0  0  0
    3.8958    1.0398    2.5021 O   0  0  0  0  0  0  0  0  0  0  0  0
    5.1144    0.0327   -1.9868 H   0  0  0  0  0  0  0  0  0  0  0  0
    5.7742   -0.8596   -0.5854 H   0  0  0  0  0  0  0  0  0  0  0  0
    6.5632    0.6443   -1.1417 H   0  0  0  0  0  0  0  0  0  0  0  0
    3.7160   -0.6405    0.5302 H   0  0  0  0  0  0  0  0  0  0  0  0
    1.5001   -1.0517   -0.3881 H   0  0  0  0  0  0  0  0  0  0  0  0
    0.8605    1.1879   -2.3662 H   0  0  0  0  0  0  0  0  0  0  0  0
   -0.3237   -0.0669   -1.9186 H   0  0  0  0  0  0  0  0  0  0  0  0
    2.1706   -0.5693   -3.1045 H   0  0  0  0  0  0  0  0  0  0  0  0
    0.5162    1.7982    0.1179 H   0  0  0  0  0  0  0  0  0  0  0  0
   -1.5243    1.8808    0.7687 H   0  0  0  0  0  0  0  0  0  0  0  0
   -1.7932   -1.3584   -0.9549 H   0  0  0  0  0  0  0  0  0  0  0  0
   -4.3244   -0.0233   -2.0497 H   0  0  0  0  0  0  0  0  0  0  0  0
   -3.7975   -1.6848   -2.4267 H   0  0  0  0  0  0  0  0  0  0  0  0
   -2.3879    0.6608   -3.0794 H   0  0  0  0  0  0  0  0  0  0  0  0
   -4.5490   -0.8187    0.2616 H   0  0  0  0  0  0  0  0  0  0  0  0
   -3.0508   -3.1825   -0.0843 H   0  0  0  0  0  0  0  0  0  0  0  0
   -1.9699   -1.6907    1.6728 H   0  0  0  0  0  0  0  0  0  0  0  0
   -4.2091   -2.3809    2.3909 H   0  0  0  0  0  0  0  0  0  0  0  0
   -3.5721    0.9085    1.7000 H   0  0  0  0  0  0  0  0  0  0  0  0
   -2.5110    0.1239    3.7289 H   0  0  0  0  0  0  0  0  0  0  0  0
    1.6485   -0.1890    2.1386 H   0  0  0  0  0  0  0  0  0  0  0  0
    0.9748    2.5325    2.3994 H   0  0  0  0  0  0  0  0  0  0  0  0
    3.0945    2.3008    1.0766 H   0  0  0  0  0  0  0  0  0  0  0  0
    3.4256    1.3732    3.2822 H   0  0  0  0  0  0  0  0  0  0  0  0
  1  2  1  0  0  0  0
  2  3  1  0  0  0  0
  3  4  1  0  0  0  0
  4  5  1  0  0  0  0
  5  6  1  0  0  0  0
  6  7  1  0  0  0  0
  5  8  1  0  0  0  0
  8  9  1  0  0  0  0
  9 10  1  0  0  0  0
 10 11  1  0  0  0  0
 11 12  1  0  0  0  0
 12 13  1  0  0  0  0
 13 14  1  0  0  0  0
 12 15  1  0  0  0  0
 15 16  1  0  0  0  0
 15 17  1  0  0  0  0
 17 18  1  0  0  0  0
 10 19  1  0  0  0  0
 17 19  1  0  0  0  0
 19 20  1  0  0  0  0
  8 21  1  0  0  0  0
 21 22  1  0  0  0  0
  3 23  1  0  0  0  0
 21 23  1  0  0  0  0
 23 24  1  0  0  0  0
  1 25  1  0  0  0  0
  1 26  1  0  0  0  0
  1 27  1  0  0  0  0
  3 28  1  0  0  0  0
  5 29  1  0  0  0  0
  6 30  1  0  0  0  0
  6 31  1  0  0  0  0
  7 32  1  0  0  0  0
  8 33  1  0  0  0  0
 10 34  1  0  0  0  0
 12 35  1  0  0  0  0
 13 36  1  0  0  0  0
 13 37  1  0  0  0  0
 14 38  1  0  0  0  0
 15 39  1  0  0  0  0
 16 40  1  0  0  0  0
 17 41  1  0  0  0  0
 18 42  1  0  0  0  0
 19 43  1  0  0  0  0
 20 44  1  0  0  0  0
 21 45  1  0  0  0  0
 22 46  1  0  0  0  0
 23 47  1  0  0  0  0
 24 48  1  0  0  0  0
M  END
