 xtb: 6.7.1 (edcfbbe)
          09212615463D

 48 49  0     0  0            999 V2000
    5.6139    1.1550    0.6478 C   0  0  0  0  0  0  0  0  0  0  0  0
    4.4607    1.3902   -0.1537 O   0  0  0  0  0  0  0  0  0  0  0  0
    3.2576    1.1248    0.4704 C   0  0  0  0  0  0  0  0  0  0  0  0
    3.0739   -0.2720    0.5447 O   0  0  0  0  0  0  0  0  0  0  0  0
    1.8940   -0.6376    1.2334 C   0  0  0  0  0  0  0  0  0  0  0  0
    1.9294   -2.1625    1.3753 C   0  0  0  0  0  0  0  0  0  0  0  0
    2.9862   -2.5857    2.1943 O   0  0  0  0  0  0  0  0  0  0  0  0
    0.6084   -0.1357    0.5317 C   0  0  0  0  0  0  0  0  0  0  0  0
   -0.4081   -0.2761    1.5249 O   0  0  0  0  0  0  0  0  0  0  0  0
   -1.6751   -0.8741    1.3939 C   0  0  0  0  0  0  0  0  0  0  0  0
   -2.7026    0.0733    1.2403 O   0  0  0  0  0  0  0  0  0  0  0  0
   -2.9691    0.5901   -0.0595 C   0  0  0  0  0  0  0  0  0  0  0  0
   -4.1529    1.5577    0.1070 C   0  0  0  0  0  0  0  0  0  0  0  0
   -4.4510    2.2389   -1.0871 O   0  0  0  0  0  0  0  0  0  0  0  0
   -3.3149   -0.5426   -1.0349 C   0  0  0  0  0  0  0  0  0  0  0  0
   -3.4878   -0.0842   -2.3523 O   0  0  0  0  0  0  0  0  0  0  0  0
   -2.1663   -1.5531   -1.0463 C   0  0  0  0  0  0  0  0  0  0  0  0
   -2.4870   -2.7037   -1.7917 O   0  0  0  0  0  0  0  0  0  0  0  0
   -1.8713   -2.0286    0.3840 C   0  0  0  0  0  0  0  0  0  0  0  0
   -0.7769   -2.9019    0.4185 O   0  0  0  0  0  0  0  0  0  0  0  0
    0.7422    1.3433    0.1055 C   0  0  0  0  0  0  0  0  0  0  0  0
   -0.1866    1.7047   -0.8919 O   0  0  0  0  0  0  0  0  0  0  0  0
    2.1474    1.7473   -0.3776 C   0  0  0  0  0  0  0  0  0  0  0  0
    2.3003    3.1397   -0.3254 O   0  0  0  0  0  0  0  0  0  0  0  0
    5.7016    0.0965    0.8965 H   0  0  0  0  0  0  0  0  0  0  0  0
    5.5664    1.7489    1.5648 H   0  0  0  0  0  0  0  0  0  0  0  0
    6.4561    1.4702    0.0390 H   0  0  0  0  0  0  0  0  0  0  0  0
    3.2296    1.5584    1.4908 H   0  0  0  0  0  0  0  0  0  0  0  0
    1.9033   -0.1856    2.2385 H   0  0  0  0  0  0  0  0  0  0  0  0
    2.0086   -2.6043    0.3759 H   0  0  0  0  0  0  0  0  0  0  0  0
    1.0088   -2.5032    1.8460 H   0  0  0  0  0  0  0  0  0  0  0  0
    3.8171   -2.2972    1.7909 H   0  0  0  0  0  0  0  0  0  0  0  0
    0.4115   -0.7674   -0.3393 H   0  0  0  0  0  0  0  0  0  0  0  0
   -1.8478   -1.2692    2.4036 H   0  0  0  0  0  0  0  0  0  0  0  0
   -2.0993    1.1391   -0.4411 H   0  0  0  0  0  0  0  0  0  0  0  0
   -3.9256    2.2445    0.9267 H   0  0  0  0  0  0  0  0  0  0  0  0
   -5.0462    0.9883    0.3745 H   0  0  0  0  0  0  0  0  0  0  0  0
   -3.7997    2.9400   -1.2333 H   0  0  0  0  0  0  0  0  0  0  0  0
   -4.2249   -1.0543   -0.6797 H   0  0  0  0  0  0  0  0  0  0  0  0
   -4.0968    0.6757   -2.3350 H   0  0  0  0  0  0  0  0  0  0  0  0
   -1.2836   -1.0667   -1.4857 H   0  0  0  0  0  0  0  0  0  0  0  0
   -2.8337   -2.4232   -2.6520 H   0  0  0  0  0  0  0  0  0  0  0  0
   -2.7815   -2.5512    0.7225 H   0  0  0  0  0  0  0  0  0  0  0  0
   -0.9766   -3.6421   -0.1774 H   0  0  0  0  0  0  0  0  0  0  0  0
    0.4869    1.9529    0.9802 H   0  0  0  0  0  0  0  0  0  0  0  0
    0.0709    1.3073   -1.7387 H   0  0  0  0  0  0  0  0  0  0  0  0
    2.3048    1.3775   -1.4039 H   0  0  0  0  0  0  0  0  0  0  0  0
    1.5857    3.5579   -0.8316 H   0  0  0  0  0  0  0  0  0  0  0  0
  1  2  1  0  0  0  0
  2  3  1  0  0  0  0
  3  4  1  0  0  0  0
  4  5  1  0  0  0  0
  5  6  1  0  0  0  0
  6  7  1  0  0  0  0
  5  8  1  0  0  0  0
  8  9  1  0  0  0  0
  9 10  1  0  0  0  0
 10 11  1  0  0  0  0
 11 12  1  0  0  0  0
 12 13  1  0  0  0  0
 13 14  1  0  0  0  0
 12 15  1  0  0  0  0
 15 16  1  0  0  0  0
 15 17  1  0  0  0  0
 17 18  1  0  0  0  0
 10 19  1  0  0  0  0
 17 19  1  0  0  0  0
 19 20  1  0  0  0  0
  8 21  1  0  0  0  0
 21 22  1  0  0  0  0
  3 23  1  0  0  0  0
 21 23  1  0  0  0  0
 23 24  1  0  0  0  0
  1 25  1  0  0  0  0
  1 26  1  0  0  0  0
  1 27  1  0  0  0  0
  3 28  1  0  0  0  0
  5 29  1  0  0  0  0
  6 30  1  0  0  0  0
  6 31  1  0  0  0  0
  7 32  1  0  0  0  0
  8 33  1  0  0  0  0
 10 34  1  0  0  0  0
 12 35  1  0  0  0  0
 13 36  1  0  0  0  0
 13 37  1  0  0  0  0
 14 38  1  0  0  0  0
 15 39  1  0  0  0  0
 16 40  1  0  0  0  0
 17 41  1  0  0  0  0
 18 42  1  0  0  0  0
 19 43  1  0  0  0  0
 20 44  1  0  0  0  0
 21 45  1  0  0  0  0
 22 46  1  0  0  0  0
 23 47  1  0  0  0  0
 24 48  1  0  0  0  0
M  END
