 xtb: 6.7.1 (edcfbbe)
          09222613273D

 48 49  0     0  0            999 V2000
    5.3937    1.9274   -1.2203 C   0  0  0  0  0  0  0  0  0  0  0  0
    4.8038    0.7101   -0.8069 O   0  0  0  0  0  0  0  0  0  0  0  0
    3.4744    0.5784   -1.1491 C   0  0  0  0  0  0  0  0  0  0  0  0
    2.7067    1.4272   -0.3242 O   0  0  0  0  0  0  0  0  0  0  0  0
    1.3260    1.4011   -0.6245 C   0  0  0  0  0  0  0  0  0  0  0  0
    0.6438    2.4458    0.2652 C   0  0  0  0  0  0  0  0  0  0  0  0
    1.1881    3.7213    0.0686 O   0  0  0  0  0  0  0  0  0  0  0  0
    0.7338    0.0031   -0.3907 C   0  0  0  0  0  0  0  0  0  0  0  0
   -0.5825    0.0171   -0.9227 O   0  0  0  0  0  0  0  0  0  0  0  0
   -1.6372   -0.4620   -0.1538 C   0  0  0  0  0  0  0  0  0  0  0  0
   -1.3129   -0.5020    1.2109 O   0  0  0  0  0  0  0  0  0  0  0  0
   -2.2443   -1.2292    1.9923 C   0  0  0  0  0  0  0  0  0  0  0  0
   -2.0079   -2.7564    1.8675 C   0  0  0  0  0  0  0  0  0  0  0  0
   -0.6489   -3.0791    1.8432 O   0  0  0  0  0  0  0  0  0  0  0  0
   -3.6957   -0.8371    1.6479 C   0  0  0  0  0  0  0  0  0  0  0  0
   -4.5046   -0.6951    2.7932 O   0  0  0  0  0  0  0  0  0  0  0  0
   -3.6811    0.5247    0.9391 C   0  0  0  0  0  0  0  0  0  0  0  0
   -4.9799    0.9559    0.6291 O   0  0  0  0  0  0  0  0  0  0  0  0
   -2.8827    0.4462   -0.3739 C   0  0  0  0  0  0  0  0  0  0  0  0
   -2.4725    1.7209   -0.7736 O   0  0  0  0  0  0  0  0  0  0  0  0
    1.5610   -1.1016   -1.0669 C   0  0  0  0  0  0  0  0  0  0  0  0
    1.2171   -2.3794   -0.5619 O   0  0  0  0  0  0  0  0  0  0  0  0
    3.0767   -0.8876   -0.9300 C   0  0  0  0  0  0  0  0  0  0  0  0
    3.7651   -1.6732   -1.8647 O   0  0  0  0  0  0  0  0  0  0  0  0
    4.9110    2.7834   -0.7414 H   0  0  0  0  0  0  0  0  0  0  0  0
    5.3318    2.0381   -2.3085 H   0  0  0  0  0  0  0  0  0  0  0  0
    6.4355    1.8718   -0.9142 H   0  0  0  0  0  0  0  0  0  0  0  0
    3.3020    0.8429   -2.2134 H   0  0  0  0  0  0  0  0  0  0  0  0
    1.1711    1.6670   -1.6819 H   0  0  0  0  0  0  0  0  0  0  0  0
    0.7513    2.1365    1.3149 H   0  0  0  0  0  0  0  0  0  0  0  0
   -0.4134    2.4956    0.0013 H   0  0  0  0  0  0  0  0  0  0  0  0
    2.1456    3.6361    0.1558 H   0  0  0  0  0  0  0  0  0  0  0  0
    0.7087   -0.1831    0.6889 H   0  0  0  0  0  0  0  0  0  0  0  0
   -1.8934   -1.4853   -0.4995 H   0  0  0  0  0  0  0  0  0  0  0  0
   -2.0190   -0.9096    3.0156 H   0  0  0  0  0  0  0  0  0  0  0  0
   -2.5132   -3.1400    0.9683 H   0  0  0  0  0  0  0  0  0  0  0  0
   -2.4307   -3.2596    2.7402 H   0  0  0  0  0  0  0  0  0  0  0  0
   -0.2619   -2.6923    1.0443 H   0  0  0  0  0  0  0  0  0  0  0  0
   -4.1424   -1.5787    0.9654 H   0  0  0  0  0  0  0  0  0  0  0  0
   -4.5585   -1.5359    3.2587 H   0  0  0  0  0  0  0  0  0  0  0  0
   -3.1847    1.2480    1.6052 H   0  0  0  0  0  0  0  0  0  0  0  0
   -5.5120    0.8583    1.4291 H   0  0  0  0  0  0  0  0  0  0  0  0
   -3.5262   -0.0073   -1.1431 H   0  0  0  0  0  0  0  0  0  0  0  0
   -3.2636    2.2705   -0.8413 H   0  0  0  0  0  0  0  0  0  0  0  0
    1.2938   -1.1265   -2.1292 H   0  0  0  0  0  0  0  0  0  0  0  0
    1.6340   -2.4920    0.3043 H   0  0  0  0  0  0  0  0  0  0  0  0
    3.3889   -1.1449    0.0980 H   0  0  0  0  0  0  0  0  0  0  0  0
    3.4051   -2.5692   -1.8278 H   0  0  0  0  0  0  0  0  0  0  0  0
  1  2  1  0  0  0  0
  2  3  1  0  0  0  0
  3  4  1  0  0  0  0
  4  5  1  0  0  0  0
  5  6  1  0  0  0  0
  6  7  1  0  0  0  0
  5  8  1  0  0  0  0
  8  9  1  0  0  0  0
  9 10  1  0  0  0  0
 10 11  1  0  0  0  0
 11 12  1  0  0  0  0
 12 13  1  0  0  0  0
 13 14  1  0  0  0  0
 12 15  1  0  0  0  0
 15 16  1  0  0  0  0
 15 17  1  0  0  0  0
 17 18  1  0  0  0  0
 10 19  1  0  0  0  0
 17 19  1  0  0  0  0
 19 20  1  0  0  0  0
  8 21  1  0  0  0  0
 21 22  1  0  0  0  0
  3 23  1  0  0  0  0
 21 23  1  0  0  0  0
 23 24  1  0  0  0  0
  1 25  1  0  0  0  0
  1 26  1  0  0  0  0
  1 27  1  0  0  0  0
  3 28  1  0  0  0  0
  5 29  1  0  0  0  0
  6 30  1  0  0  0  0
  6 31  1  0  0  0  0
  7 32  1  0  0  0  0
  8 33  1  0  0  0  0
 10 34  1  0  0  0  0
 12 35  1  0  0  0  0
 13 36  1  0  0  0  0
 13 37  1  0  0  0  0
 14 38  1  0  0  0  0
 15 39  1  0  0  0  0
 16 40  1  0  0  0  0
 17 41  1  0  0  0  0
 18 42  1  0  0  0  0
 19 43  1  0  0  0  0
 20 44  1  0  0  0  0
 21 45  1  0  0  0  0
 22 46  1  0  0  0  0
 23 47  1  0  0  0  0
 24 48  1  0  0  0  0
M  END
