 xtb: 6.7.1 (edcfbbe)
          09212615503D

 48 49  0     0  0            999 V2000
    5.9438   -0.6594    0.2296 C   0  0  0  0  0  0  0  0  0  0  0  0
    5.0192    0.3061   -0.2656 O   0  0  0  0  0  0  0  0  0  0  0  0
    3.8235    0.3478    0.4257 C   0  0  0  0  0  0  0  0  0  0  0  0
    3.1216   -0.8483    0.1739 O   0  0  0  0  0  0  0  0  0  0  0  0
    1.8903   -0.9645    0.8589 C   0  0  0  0  0  0  0  0  0  0  0  0
    1.3356   -2.3562    0.5289 C   0  0  0  0  0  0  0  0  0  0  0  0
    2.0664   -3.3937    1.1318 O   0  0  0  0  0  0  0  0  0  0  0  0
    0.9259    0.1569    0.4290 C   0  0  0  0  0  0  0  0  0  0  0  0
   -0.2065    0.1794    1.2947 O   0  0  0  0  0  0  0  0  0  0  0  0
   -1.5025    0.2104    0.7592 C   0  0  0  0  0  0  0  0  0  0  0  0
   -1.4881    0.2053   -0.6414 O   0  0  0  0  0  0  0  0  0  0  0  0
   -2.7432    0.5261   -1.2328 C   0  0  0  0  0  0  0  0  0  0  0  0
   -2.8874    2.0405   -1.4867 C   0  0  0  0  0  0  0  0  0  0  0  0
   -4.0867    2.3186   -2.1683 O   0  0  0  0  0  0  0  0  0  0  0  0
   -3.9331   -0.0004   -0.4078 C   0  0  0  0  0  0  0  0  0  0  0  0
   -5.0266   -0.3229   -1.2275 O   0  0  0  0  0  0  0  0  0  0  0  0
   -3.4935   -1.2740    0.3225 C   0  0  0  0  0  0  0  0  0  0  0  0
   -4.5532   -1.8652    1.0279 O   0  0  0  0  0  0  0  0  0  0  0  0
   -2.3832   -0.9377    1.3322 C   0  0  0  0  0  0  0  0  0  0  0  0
   -1.6051   -2.0650    1.6223 O   0  0  0  0  0  0  0  0  0  0  0  0
    1.6038    1.5372    0.5245 C   0  0  0  0  0  0  0  0  0  0  0  0
    0.8165    2.5462   -0.0615 O   0  0  0  0  0  0  0  0  0  0  0  0
    3.0197    1.5521   -0.0760 C   0  0  0  0  0  0  0  0  0  0  0  0
    3.7017    2.7199    0.2937 O   0  0  0  0  0  0  0  0  0  0  0  0
    5.5115   -1.6604    0.1806 H   0  0  0  0  0  0  0  0  0  0  0  0
    6.2191   -0.4230    1.2615 H   0  0  0  0  0  0  0  0  0  0  0  0
    6.8113   -0.5860   -0.4192 H   0  0  0  0  0  0  0  0  0  0  0  0
    3.9980    0.4568    1.5171 H   0  0  0  0  0  0  0  0  0  0  0  0
    2.0582   -0.8703    1.9438 H   0  0  0  0  0  0  0  0  0  0  0  0
    1.4308   -2.5135   -0.5472 H   0  0  0  0  0  0  0  0  0  0  0  0
    0.2838   -2.3881    0.8220 H   0  0  0  0  0  0  0  0  0  0  0  0
    1.9306   -3.3673    2.0895 H   0  0  0  0  0  0  0  0  0  0  0  0
    0.6112   -0.0286   -0.6020 H   0  0  0  0  0  0  0  0  0  0  0  0
   -1.9501    1.1628    1.1058 H   0  0  0  0  0  0  0  0  0  0  0  0
   -2.7371   -0.0063   -2.1918 H   0  0  0  0  0  0  0  0  0  0  0  0
   -2.0134    2.4040   -2.0331 H   0  0  0  0  0  0  0  0  0  0  0  0
   -2.9393    2.5716   -0.5326 H   0  0  0  0  0  0  0  0  0  0  0  0
   -3.9655    2.1633   -3.1158 H   0  0  0  0  0  0  0  0  0  0  0  0
   -4.2333    0.7443    0.3443 H   0  0  0  0  0  0  0  0  0  0  0  0
   -5.3737    0.4963   -1.6156 H   0  0  0  0  0  0  0  0  0  0  0  0
   -3.0892   -1.9790   -0.4213 H   0  0  0  0  0  0  0  0  0  0  0  0
   -5.3184   -1.9201    0.4338 H   0  0  0  0  0  0  0  0  0  0  0  0
   -2.8587   -0.5664    2.2512 H   0  0  0  0  0  0  0  0  0  0  0  0
   -2.1845   -2.7398    2.0100 H   0  0  0  0  0  0  0  0  0  0  0  0
    1.6710    1.8070    1.5847 H   0  0  0  0  0  0  0  0  0  0  0  0
    0.6793    2.3350   -0.9970 H   0  0  0  0  0  0  0  0  0  0  0  0
    2.9654    1.4645   -1.1727 H   0  0  0  0  0  0  0  0  0  0  0  0
    3.1338    3.4839    0.1003 H   0  0  0  0  0  0  0  0  0  0  0  0
  1  2  1  0  0  0  0
  2  3  1  0  0  0  0
  3  4  1  0  0  0  0
  4  5  1  0  0  0  0
  5  6  1  0  0  0  0
  6  7  1  0  0  0  0
  5  8  1  0  0  0  0
  8  9  1  0  0  0  0
  9 10  1  0  0  0  0
 10 11  1  0  0  0  0
 11 12  1  0  0  0  0
 12 13  1  0  0  0  0
 13 14  1  0  0  0  0
 12 15  1  0  0  0  0
 15 16  1  0  0  0  0
 15 17  1  0  0  0  0
 17 18  1  0  0  0  0
 10 19  1  0  0  0  0
 17 19  1  0  0  0  0
 19 20  1  0  0  0  0
  8 21  1  0  0  0  0
 21 22  1  0  0  0  0
  3 23  1  0  0  0  0
 21 23  1  0  0  0  0
 23 24  1  0  0  0  0
  1 25  1  0  0  0  0
  1 26  1  0  0  0  0
  1 27  1  0  0  0  0
  3 28  1  0  0  0  0
  5 29  1  0  0  0  0
  6 30  1  0  0  0  0
  6 31  1  0  0  0  0
  7 32  1  0  0  0  0
  8 33  1  0  0  0  0
 10 34  1  0  0  0  0
 12 35  1  0  0  0  0
 13 36  1  0  0  0  0
 13 37  1  0  0  0  0
 14 38  1  0  0  0  0
 15 39  1  0  0  0  0
 16 40  1  0  0  0  0
 17 41  1  0  0  0  0
 18 42  1  0  0  0  0
 19 43  1  0  0  0  0
 20 44  1  0  0  0  0
 21 45  1  0  0  0  0
 22 46  1  0  0  0  0
 23 47  1  0  0  0  0
 24 48  1  0  0  0  0
M  END
