 xtb: 6.7.1 (edcfbbe)
          09222613043D

 48 49  0     0  0            999 V2000
    4.6572    0.3016    0.2854 C   0  0  0  0  0  0  0  0  0  0  0  0
    3.4942    0.1980   -0.5253 O   0  0  0  0  0  0  0  0  0  0  0  0
    2.9946    1.4319   -0.9651 C   0  0  0  0  0  0  0  0  0  0  0  0
    2.5631    2.2434    0.0897 O   0  0  0  0  0  0  0  0  0  0  0  0
    1.1897    2.1224    0.4521 C   0  0  0  0  0  0  0  0  0  0  0  0
    1.0887    2.5887    1.9087 C   0  0  0  0  0  0  0  0  0  0  0  0
    1.4980    3.9208    2.0632 O   0  0  0  0  0  0  0  0  0  0  0  0
    0.6651    0.6870    0.2787 C   0  0  0  0  0  0  0  0  0  0  0  0
   -0.6995    0.7188    0.6810 O   0  0  0  0  0  0  0  0  0  0  0  0
   -1.2419   -0.1940    1.6087 C   0  0  0  0  0  0  0  0  0  0  0  0
   -2.6282   -0.1566    1.4346 O   0  0  0  0  0  0  0  0  0  0  0  0
   -3.0724   -0.6744    0.1871 C   0  0  0  0  0  0  0  0  0  0  0  0
   -4.5887   -0.4311    0.1272 C   0  0  0  0  0  0  0  0  0  0  0  0
   -5.1400   -0.8081   -1.1105 O   0  0  0  0  0  0  0  0  0  0  0  0
   -2.7376   -2.1703    0.0750 C   0  0  0  0  0  0  0  0  0  0  0  0
   -3.0719   -2.6987   -1.1837 O   0  0  0  0  0  0  0  0  0  0  0  0
   -1.2321   -2.3685    0.2847 C   0  0  0  0  0  0  0  0  0  0  0  0
   -0.9049   -3.7342    0.4324 O   0  0  0  0  0  0  0  0  0  0  0  0
   -0.7974   -1.6719    1.5773 C   0  0  0  0  0  0  0  0  0  0  0  0
    0.5763   -1.8122    1.8183 O   0  0  0  0  0  0  0  0  0  0  0  0
    0.8014    0.2635   -1.2064 C   0  0  0  0  0  0  0  0  0  0  0  0
    1.1032   -1.0957   -1.3555 O   0  0  0  0  0  0  0  0  0  0  0  0
    1.8541    1.1175   -1.9452 C   0  0  0  0  0  0  0  0  0  0  0  0
    1.2466    2.2749   -2.4485 O   0  0  0  0  0  0  0  0  0  0  0  0
    4.4509    0.8866    1.1839 H   0  0  0  0  0  0  0  0  0  0  0  0
    5.4701    0.7712   -0.2763 H   0  0  0  0  0  0  0  0  0  0  0  0
    4.9257   -0.7160    0.5545 H   0  0  0  0  0  0  0  0  0  0  0  0
    3.8031    2.0064   -1.4533 H   0  0  0  0  0  0  0  0  0  0  0  0
    0.5868    2.7874   -0.1811 H   0  0  0  0  0  0  0  0  0  0  0  0
    1.6947    1.9204    2.5379 H   0  0  0  0  0  0  0  0  0  0  0  0
    0.0474    2.5396    2.2303 H   0  0  0  0  0  0  0  0  0  0  0  0
    2.3625    4.0151    1.6405 H   0  0  0  0  0  0  0  0  0  0  0  0
    1.2424    0.0051    0.9090 H   0  0  0  0  0  0  0  0  0  0  0  0
   -1.0670    0.1864    2.6300 H   0  0  0  0  0  0  0  0  0  0  0  0
   -2.5718   -0.1396   -0.6339 H   0  0  0  0  0  0  0  0  0  0  0  0
   -4.7813    0.6207    0.3589 H   0  0  0  0  0  0  0  0  0  0  0  0
   -5.0779   -1.0457    0.8863 H   0  0  0  0  0  0  0  0  0  0  0  0
   -4.9022   -0.1562   -1.7828 H   0  0  0  0  0  0  0  0  0  0  0  0
   -3.2733   -2.7110    0.8748 H   0  0  0  0  0  0  0  0  0  0  0  0
   -3.9825   -2.4265   -1.3912 H   0  0  0  0  0  0  0  0  0  0  0  0
   -0.6929   -1.9475   -0.5724 H   0  0  0  0  0  0  0  0  0  0  0  0
   -1.2316   -4.2003   -0.3480 H   0  0  0  0  0  0  0  0  0  0  0  0
   -1.3629   -2.1446    2.4013 H   0  0  0  0  0  0  0  0  0  0  0  0
    0.7883   -2.7490    1.6866 H   0  0  0  0  0  0  0  0  0  0  0  0
   -0.1642    0.4293   -1.6971 H   0  0  0  0  0  0  0  0  0  0  0  0
    1.9859   -1.2502   -0.9857 H   0  0  0  0  0  0  0  0  0  0  0  0
    2.2585    0.4970   -2.7589 H   0  0  0  0  0  0  0  0  0  0  0  0
    1.8738    2.7687   -2.9940 H   0  0  0  0  0  0  0  0  0  0  0  0
  1  2  1  0  0  0  0
  2  3  1  0  0  0  0
  3  4  1  0  0  0  0
  4  5  1  0  0  0  0
  5  6  1  0  0  0  0
  6  7  1  0  0  0  0
  5  8  1  0  0  0  0
  8  9  1  0  0  0  0
  9 10  1  0  0  0  0
 10 11  1  0  0  0  0
 11 12  1  0  0  0  0
 12 13  1  0  0  0  0
 13 14  1  0  0  0  0
 12 15  1  0  0  0  0
 15 16  1  0  0  0  0
 15 17  1  0  0  0  0
 17 18  1  0  0  0  0
 10 19  1  0  0  0  0
 17 19  1  0  0  0  0
 19 20  1  0  0  0  0
  8 21  1  0  0  0  0
 21 22  1  0  0  0  0
  3 23  1  0  0  0  0
 21 23  1  0  0  0  0
 23 24  1  0  0  0  0
  1 25  1  0  0  0  0
  1 26  1  0  0  0  0
  1 27  1  0  0  0  0
  3 28  1  0  0  0  0
  5 29  1  0  0  0  0
  6 30  1  0  0  0  0
  6 31  1  0  0  0  0
  7 32  1  0  0  0  0
  8 33  1  0  0  0  0
 10 34  1  0  0  0  0
 12 35  1  0  0  0  0
 13 36  1  0  0  0  0
 13 37  1  0  0  0  0
 14 38  1  0  0  0  0
 15 39  1  0  0  0  0
 16 40  1  0  0  0  0
 17 41  1  0  0  0  0
 18 42  1  0  0  0  0
 19 43  1  0  0  0  0
 20 44  1  0  0  0  0
 21 45  1  0  0  0  0
 22 46  1  0  0  0  0
 23 47  1  0  0  0  0
 24 48  1  0  0  0  0
M  END
