 xtb: 6.7.1 (edcfbbe)
          09212615523D

 48 49  0     0  0            999 V2000
    5.7275   -0.5027    0.0752 C   0  0  0  0  0  0  0  0  0  0  0  0
    4.8316    0.5237    0.4912 O   0  0  0  0  0  0  0  0  0  0  0  0
    3.5918    0.0845    0.9089 C   0  0  0  0  0  0  0  0  0  0  0  0
    2.8339   -0.2850   -0.2266 O   0  0  0  0  0  0  0  0  0  0  0  0
    1.5237   -0.7172    0.0942 C   0  0  0  0  0  0  0  0  0  0  0  0
    0.9220   -1.3282   -1.1744 C   0  0  0  0  0  0  0  0  0  0  0  0
    1.7160   -2.3633   -1.6838 O   0  0  0  0  0  0  0  0  0  0  0  0
    0.7275    0.4698    0.6645 C   0  0  0  0  0  0  0  0  0  0  0  0
   -0.6116    0.1031    0.9822 O   0  0  0  0  0  0  0  0  0  0  0  0
   -1.6130    0.9684    0.5109 C   0  0  0  0  0  0  0  0  0  0  0  0
   -1.7978    0.9481   -0.8730 O   0  0  0  0  0  0  0  0  0  0  0  0
   -2.4442   -0.1966   -1.4376 C   0  0  0  0  0  0  0  0  0  0  0  0
   -2.7184    0.1470   -2.9093 C   0  0  0  0  0  0  0  0  0  0  0  0
   -1.5390    0.3713   -3.6351 O   0  0  0  0  0  0  0  0  0  0  0  0
   -3.7428   -0.5692   -0.7103 C   0  0  0  0  0  0  0  0  0  0  0  0
   -4.3069   -1.7507   -1.2158 O   0  0  0  0  0  0  0  0  0  0  0  0
   -3.4773   -0.6772    0.7983 C   0  0  0  0  0  0  0  0  0  0  0  0
   -4.6611   -0.9305    1.5150 O   0  0  0  0  0  0  0  0  0  0  0  0
   -2.9092    0.6596    1.2788 C   0  0  0  0  0  0  0  0  0  0  0  0
   -2.6346    0.6744    2.6487 O   0  0  0  0  0  0  0  0  0  0  0  0
    1.4342    0.9967    1.9255 C   0  0  0  0  0  0  0  0  0  0  0  0
    0.8406    2.1662    2.4311 O   0  0  0  0  0  0  0  0  0  0  0  0
    2.9336    1.2388    1.6756 C   0  0  0  0  0  0  0  0  0  0  0  0
    3.6246    1.3769    2.8880 O   0  0  0  0  0  0  0  0  0  0  0  0
    5.3540   -1.0021   -0.8196 H   0  0  0  0  0  0  0  0  0  0  0  0
    5.8678   -1.2322    0.8772 H   0  0  0  0  0  0  0  0  0  0  0  0
    6.6637    0.0042   -0.1396 H   0  0  0  0  0  0  0  0  0  0  0  0
    3.6817   -0.7882    1.5876 H   0  0  0  0  0  0  0  0  0  0  0  0
    1.5839   -1.5022    0.8657 H   0  0  0  0  0  0  0  0  0  0  0  0
    0.7619   -0.5475   -1.9269 H   0  0  0  0  0  0  0  0  0  0  0  0
   -0.0283   -1.7896   -0.9080 H   0  0  0  0  0  0  0  0  0  0  0  0
    2.5877   -2.0043   -1.9017 H   0  0  0  0  0  0  0  0  0  0  0  0
    0.7130    1.2576   -0.1018 H   0  0  0  0  0  0  0  0  0  0  0  0
   -1.3272    2.0081    0.7291 H   0  0  0  0  0  0  0  0  0  0  0  0
   -1.7619   -1.0547   -1.3916 H   0  0  0  0  0  0  0  0  0  0  0  0
   -3.3744    1.0242   -2.9473 H   0  0  0  0  0  0  0  0  0  0  0  0
   -3.2210   -0.6979   -3.3825 H   0  0  0  0  0  0  0  0  0  0  0  0
   -1.1248    1.1778   -3.2991 H   0  0  0  0  0  0  0  0  0  0  0  0
   -4.4994    0.2065   -0.8756 H   0  0  0  0  0  0  0  0  0  0  0  0
   -3.6574   -2.4692   -1.1847 H   0  0  0  0  0  0  0  0  0  0  0  0
   -2.7346   -1.4665    0.9978 H   0  0  0  0  0  0  0  0  0  0  0  0
   -5.1826   -1.5909    1.0327 H   0  0  0  0  0  0  0  0  0  0  0  0
   -3.6381    1.4485    1.0279 H   0  0  0  0  0  0  0  0  0  0  0  0
   -3.4003    0.2967    3.1111 H   0  0  0  0  0  0  0  0  0  0  0  0
    1.3117    0.2522    2.7196 H   0  0  0  0  0  0  0  0  0  0  0  0
    0.9518    2.8926    1.7986 H   0  0  0  0  0  0  0  0  0  0  0  0
    3.0613    2.1403    1.0544 H   0  0  0  0  0  0  0  0  0  0  0  0
    3.1607    2.0288    3.4382 H   0  0  0  0  0  0  0  0  0  0  0  0
  1  2  1  0  0  0  0
  2  3  1  0  0  0  0
  3  4  1  0  0  0  0
  4  5  1  0  0  0  0
  5  6  1  0  0  0  0
  6  7  1  0  0  0  0
  5  8  1  0  0  0  0
  8  9  1  0  0  0  0
  9 10  1  0  0  0  0
 10 11  1  0  0  0  0
 11 12  1  0  0  0  0
 12 13  1  0  0  0  0
 13 14  1  0  0  0  0
 12 15  1  0  0  0  0
 15 16  1  0  0  0  0
 15 17  1  0  0  0  0
 17 18  1  0  0  0  0
 10 19  1  0  0  0  0
 17 19  1  0  0  0  0
 19 20  1  0  0  0  0
  8 21  1  0  0  0  0
 21 22  1  0  0  0  0
  3 23  1  0  0  0  0
 21 23  1  0  0  0  0
 23 24  1  0  0  0  0
  1 25  1  0  0  0  0
  1 26  1  0  0  0  0
  1 27  1  0  0  0  0
  3 28  1  0  0  0  0
  5 29  1  0  0  0  0
  6 30  1  0  0  0  0
  6 31  1  0  0  0  0
  7 32  1  0  0  0  0
  8 33  1  0  0  0  0
 10 34  1  0  0  0  0
 12 35  1  0  0  0  0
 13 36  1  0  0  0  0
 13 37  1  0  0  0  0
 14 38  1  0  0  0  0
 15 39  1  0  0  0  0
 16 40  1  0  0  0  0
 17 41  1  0  0  0  0
 18 42  1  0  0  0  0
 19 43  1  0  0  0  0
 20 44  1  0  0  0  0
 21 45  1  0  0  0  0
 22 46  1  0  0  0  0
 23 47  1  0  0  0  0
 24 48  1  0  0  0  0
M  END
