 xtb: 6.7.1 (edcfbbe)
          09222613083D

 48 49  0     0  0            999 V2000
    5.5898    1.6439   -0.6982 C   0  0  0  0  0  0  0  0  0  0  0  0
    4.7852    0.6720   -0.0437 O   0  0  0  0  0  0  0  0  0  0  0  0
    3.5900    0.3937   -0.6737 C   0  0  0  0  0  0  0  0  0  0  0  0
    2.7188    1.4941   -0.5028 O   0  0  0  0  0  0  0  0  0  0  0  0
    1.4455    1.3066   -1.0884 C   0  0  0  0  0  0  0  0  0  0  0  0
    0.6881    2.6335   -0.9676 C   0  0  0  0  0  0  0  0  0  0  0  0
    1.3138    3.6540   -1.6974 O   0  0  0  0  0  0  0  0  0  0  0  0
    0.7182    0.1380   -0.4026 C   0  0  0  0  0  0  0  0  0  0  0  0
   -0.5405   -0.0710   -1.0309 O   0  0  0  0  0  0  0  0  0  0  0  0
   -1.6790   -0.1880   -0.2389 C   0  0  0  0  0  0  0  0  0  0  0  0
   -1.4120   -0.9590    0.9138 O   0  0  0  0  0  0  0  0  0  0  0  0
   -2.5774   -1.5777    1.4500 C   0  0  0  0  0  0  0  0  0  0  0  0
   -2.6974   -3.0184    0.9143 C   0  0  0  0  0  0  0  0  0  0  0  0
   -1.5568   -3.7817    1.1974 O   0  0  0  0  0  0  0  0  0  0  0  0
   -3.8658   -0.7803    1.1586 C   0  0  0  0  0  0  0  0  0  0  0  0
   -4.8640   -1.0439    2.1092 O   0  0  0  0  0  0  0  0  0  0  0  0
   -3.6301    0.7458    1.0183 C   0  0  0  0  0  0  0  0  0  0  0  0
   -4.6887    1.3251    0.2990 O   0  0  0  0  0  0  0  0  0  0  0  0
   -2.3082    1.1169    0.2953 C   0  0  0  0  0  0  0  0  0  0  0  0
   -1.4330    1.7880    1.1620 O   0  0  0  0  0  0  0  0  0  0  0  0
    1.5674   -1.1380   -0.5058 C   0  0  0  0  0  0  0  0  0  0  0  0
    1.0208   -2.2156    0.2143 O   0  0  0  0  0  0  0  0  0  0  0  0
    3.0116   -0.8778   -0.0378 C   0  0  0  0  0  0  0  0  0  0  0  0
    3.8415   -1.9506   -0.3934 O   0  0  0  0  0  0  0  0  0  0  0  0
    5.0940    2.6164   -0.7085 H   0  0  0  0  0  0  0  0  0  0  0  0
    5.8099    1.3318   -1.7237 H   0  0  0  0  0  0  0  0  0  0  0  0
    6.5082    1.6991   -0.1199 H   0  0  0  0  0  0  0  0  0  0  0  0
    3.7397    0.2113   -1.7598 H   0  0  0  0  0  0  0  0  0  0  0  0
    1.5633    1.0623   -2.1574 H   0  0  0  0  0  0  0  0  0  0  0  0
    0.5969    2.9027    0.0910 H   0  0  0  0  0  0  0  0  0  0  0  0
   -0.3080    2.5109   -1.3933 H   0  0  0  0  0  0  0  0  0  0  0  0
    2.2145    3.7487   -1.3613 H   0  0  0  0  0  0  0  0  0  0  0  0
    0.5841    0.3916    0.6538 H   0  0  0  0  0  0  0  0  0  0  0  0
   -2.3987   -0.6845   -0.9042 H   0  0  0  0  0  0  0  0  0  0  0  0
   -2.3959   -1.6254    2.5305 H   0  0  0  0  0  0  0  0  0  0  0  0
   -2.8852   -2.9857   -0.1679 H   0  0  0  0  0  0  0  0  0  0  0  0
   -3.5396   -3.5105    1.4047 H   0  0  0  0  0  0  0  0  0  0  0  0
   -0.8003   -3.3917    0.7323 H   0  0  0  0  0  0  0  0  0  0  0  0
   -4.2973   -1.1288    0.2125 H   0  0  0  0  0  0  0  0  0  0  0  0
   -4.5566   -0.8064    2.9955 H   0  0  0  0  0  0  0  0  0  0  0  0
   -3.5824    1.1889    2.0281 H   0  0  0  0  0  0  0  0  0  0  0  0
   -5.5264    1.0637    0.7078 H   0  0  0  0  0  0  0  0  0  0  0  0
   -2.5386    1.8088   -0.5169 H   0  0  0  0  0  0  0  0  0  0  0  0
   -1.1766    1.1749    1.8676 H   0  0  0  0  0  0  0  0  0  0  0  0
    1.5850   -1.4654   -1.5517 H   0  0  0  0  0  0  0  0  0  0  0  0
    0.8317   -1.9267    1.1192 H   0  0  0  0  0  0  0  0  0  0  0  0
    3.0247   -0.7247    1.0539 H   0  0  0  0  0  0  0  0  0  0  0  0
    3.4162   -2.7708   -0.0999 H   0  0  0  0  0  0  0  0  0  0  0  0
  1  2  1  0  0  0  0
  2  3  1  0  0  0  0
  3  4  1  0  0  0  0
  4  5  1  0  0  0  0
  5  6  1  0  0  0  0
  6  7  1  0  0  0  0
  5  8  1  0  0  0  0
  8  9  1  0  0  0  0
  9 10  1  0  0  0  0
 10 11  1  0  0  0  0
 11 12  1  0  0  0  0
 12 13  1  0  0  0  0
 13 14  1  0  0  0  0
 12 15  1  0  0  0  0
 15 16  1  0  0  0  0
 15 17  1  0  0  0  0
 17 18  1  0  0  0  0
 10 19  1  0  0  0  0
 17 19  1  0  0  0  0
 19 20  1  0  0  0  0
  8 21  1  0  0  0  0
 21 22  1  0  0  0  0
  3 23  1  0  0  0  0
 21 23  1  0  0  0  0
 23 24  1  0  0  0  0
  1 25  1  0  0  0  0
  1 26  1  0  0  0  0
  1 27  1  0  0  0  0
  3 28  1  0  0  0  0
  5 29  1  0  0  0  0
  6 30  1  0  0  0  0
  6 31  1  0  0  0  0
  7 32  1  0  0  0  0
  8 33  1  0  0  0  0
 10 34  1  0  0  0  0
 12 35  1  0  0  0  0
 13 36  1  0  0  0  0
 13 37  1  0  0  0  0
 14 38  1  0  0  0  0
 15 39  1  0  0  0  0
 16 40  1  0  0  0  0
 17 41  1  0  0  0  0
 18 42  1  0  0  0  0
 19 43  1  0  0  0  0
 20 44  1  0  0  0  0
 21 45  1  0  0  0  0
 22 46  1  0  0  0  0
 23 47  1  0  0  0  0
 24 48  1  0  0  0  0
M  END
