 xtb: 6.7.1 (edcfbbe)
          09222613003D

 48 49  0     0  0            999 V2000
    5.6571   -1.4075   -0.3523 C   0  0  0  0  0  0  0  0  0  0  0  0
    4.9791   -0.3352    0.2901 O   0  0  0  0  0  0  0  0  0  0  0  0
    3.6348   -0.5496    0.5094 C   0  0  0  0  0  0  0  0  0  0  0  0
    2.9590   -0.5071   -0.7316 O   0  0  0  0  0  0  0  0  0  0  0  0
    1.5596   -0.6514   -0.6229 C   0  0  0  0  0  0  0  0  0  0  0  0
    1.0029   -0.7109   -2.0514 C   0  0  0  0  0  0  0  0  0  0  0  0
    1.4056   -1.8696   -2.7259 O   0  0  0  0  0  0  0  0  0  0  0  0
    0.9447    0.5102    0.1790 C   0  0  0  0  0  0  0  0  0  0  0  0
   -0.4486    0.2675    0.2944 O   0  0  0  0  0  0  0  0  0  0  0  0
   -1.3469    1.2952   -0.0372 C   0  0  0  0  0  0  0  0  0  0  0  0
   -2.1735    0.9031   -1.0964 O   0  0  0  0  0  0  0  0  0  0  0  0
   -2.9563   -0.2626   -0.8448 C   0  0  0  0  0  0  0  0  0  0  0  0
   -3.7849   -0.5182   -2.1110 C   0  0  0  0  0  0  0  0  0  0  0  0
   -2.9960   -0.9027   -3.2035 O   0  0  0  0  0  0  0  0  0  0  0  0
   -3.8648   -0.0718    0.3794 C   0  0  0  0  0  0  0  0  0  0  0  0
   -4.5925   -1.2285    0.6967 O   0  0  0  0  0  0  0  0  0  0  0  0
   -3.0250    0.3985    1.5765 C   0  0  0  0  0  0  0  0  0  0  0  0
   -3.8315    0.7307    2.6811 O   0  0  0  0  0  0  0  0  0  0  0  0
   -2.2348    1.6458    1.1745 C   0  0  0  0  0  0  0  0  0  0  0  0
   -1.4447    2.1217    2.2303 O   0  0  0  0  0  0  0  0  0  0  0  0
    1.6046    0.5801    1.5652 C   0  0  0  0  0  0  0  0  0  0  0  0
    1.3031    1.7625    2.2572 O   0  0  0  0  0  0  0  0  0  0  0  0
    3.1385    0.5514    1.4529 C   0  0  0  0  0  0  0  0  0  0  0  0
    3.7115    0.3228    2.7110 O   0  0  0  0  0  0  0  0  0  0  0  0
    5.2809   -1.5531   -1.3669 H   0  0  0  0  0  0  0  0  0  0  0  0
    5.5417   -2.3326    0.2208 H   0  0  0  0  0  0  0  0  0  0  0  0
    6.7031   -1.1142   -0.3806 H   0  0  0  0  0  0  0  0  0  0  0  0
    3.4571   -1.5377    0.9874 H   0  0  0  0  0  0  0  0  0  0  0  0
    1.3213   -1.5932   -0.1016 H   0  0  0  0  0  0  0  0  0  0  0  0
    1.3283    0.1903   -2.5873 H   0  0  0  0  0  0  0  0  0  0  0  0
   -0.0869   -0.7382   -2.0126 H   0  0  0  0  0  0  0  0  0  0  0  0
    2.3714   -1.8853   -2.7464 H   0  0  0  0  0  0  0  0  0  0  0  0
    1.1319    1.4531   -0.3511 H   0  0  0  0  0  0  0  0  0  0  0  0
   -0.8181    2.1901   -0.3863 H   0  0  0  0  0  0  0  0  0  0  0  0
   -2.2813   -1.1137   -0.6684 H   0  0  0  0  0  0  0  0  0  0  0  0
   -4.3555    0.3912   -2.3376 H   0  0  0  0  0  0  0  0  0  0  0  0
   -4.4787   -1.3397   -1.9231 H   0  0  0  0  0  0  0  0  0  0  0  0
   -2.3974   -0.1760   -3.4176 H   0  0  0  0  0  0  0  0  0  0  0  0
   -4.6172    0.6946    0.1583 H   0  0  0  0  0  0  0  0  0  0  0  0
   -3.9896   -1.9778    0.8025 H   0  0  0  0  0  0  0  0  0  0  0  0
   -2.3081   -0.3922    1.8548 H   0  0  0  0  0  0  0  0  0  0  0  0
   -4.5402    0.0757    2.7498 H   0  0  0  0  0  0  0  0  0  0  0  0
   -2.9430    2.4248    0.8525 H   0  0  0  0  0  0  0  0  0  0  0  0
   -2.0025    2.1464    3.0231 H   0  0  0  0  0  0  0  0  0  0  0  0
    1.2775   -0.3015    2.1419 H   0  0  0  0  0  0  0  0  0  0  0  0
    0.3348    1.8818    2.3049 H   0  0  0  0  0  0  0  0  0  0  0  0
    3.4737    1.5147    1.0398 H   0  0  0  0  0  0  0  0  0  0  0  0
    3.3957    1.0181    3.3064 H   0  0  0  0  0  0  0  0  0  0  0  0
  1  2  1  0  0  0  0
  2  3  1  0  0  0  0
  3  4  1  0  0  0  0
  4  5  1  0  0  0  0
  5  6  1  0  0  0  0
  6  7  1  0  0  0  0
  5  8  1  0  0  0  0
  8  9  1  0  0  0  0
  9 10  1  0  0  0  0
 10 11  1  0  0  0  0
 11 12  1  0  0  0  0
 12 13  1  0  0  0  0
 13 14  1  0  0  0  0
 12 15  1  0  0  0  0
 15 16  1  0  0  0  0
 15 17  1  0  0  0  0
 17 18  1  0  0  0  0
 10 19  1  0  0  0  0
 17 19  1  0  0  0  0
 19 20  1  0  0  0  0
  8 21  1  0  0  0  0
 21 22  1  0  0  0  0
  3 23  1  0  0  0  0
 21 23  1  0  0  0  0
 23 24  1  0  0  0  0
  1 25  1  0  0  0  0
  1 26  1  0  0  0  0
  1 27  1  0  0  0  0
  3 28  1  0  0  0  0
  5 29  1  0  0  0  0
  6 30  1  0  0  0  0
  6 31  1  0  0  0  0
  7 32  1  0  0  0  0
  8 33  1  0  0  0  0
 10 34  1  0  0  0  0
 12 35  1  0  0  0  0
 13 36  1  0  0  0  0
 13 37  1  0  0  0  0
 14 38  1  0  0  0  0
 15 39  1  0  0  0  0
 16 40  1  0  0  0  0
 17 41  1  0  0  0  0
 18 42  1  0  0  0  0
 19 43  1  0  0  0  0
 20 44  1  0  0  0  0
 21 45  1  0  0  0  0
 22 46  1  0  0  0  0
 23 47  1  0  0  0  0
 24 48  1  0  0  0  0
M  END
