 xtb: 6.7.1 (edcfbbe)
          09222613273D

 48 49  0     0  0            999 V2000
    5.6921   -0.5532    0.1316 C   0  0  0  0  0  0  0  0  0  0  0  0
    4.8355    0.4955    0.5416 O   0  0  0  0  0  0  0  0  0  0  0  0
    3.5845    0.0873    0.9485 C   0  0  0  0  0  0  0  0  0  0  0  0
    2.8309   -0.2643   -0.1960 O   0  0  0  0  0  0  0  0  0  0  0  0
    1.5164   -0.6968    0.0934 C   0  0  0  0  0  0  0  0  0  0  0  0
    0.9668   -1.2825   -1.2128 C   0  0  0  0  0  0  0  0  0  0  0  0
    1.8637   -2.2039   -1.7623 O   0  0  0  0  0  0  0  0  0  0  0  0
    0.7124    0.4820    0.6713 C   0  0  0  0  0  0  0  0  0  0  0  0
   -0.6217    0.1106    0.9882 O   0  0  0  0  0  0  0  0  0  0  0  0
   -1.6237    0.9660    0.5243 C   0  0  0  0  0  0  0  0  0  0  0  0
   -1.8110    0.9445   -0.8636 O   0  0  0  0  0  0  0  0  0  0  0  0
   -2.4059   -0.2276   -1.4221 C   0  0  0  0  0  0  0  0  0  0  0  0
   -2.6241    0.1126   -2.9047 C   0  0  0  0  0  0  0  0  0  0  0  0
   -1.4318    0.4976   -3.5235 O   0  0  0  0  0  0  0  0  0  0  0  0
   -3.7080   -0.6249   -0.7121 C   0  0  0  0  0  0  0  0  0  0  0  0
   -4.1667   -1.8939   -1.1177 O   0  0  0  0  0  0  0  0  0  0  0  0
   -3.4484   -0.7101    0.7962 C   0  0  0  0  0  0  0  0  0  0  0  0
   -4.6254   -1.0011    1.5084 O   0  0  0  0  0  0  0  0  0  0  0  0
   -2.9276    0.6452    1.2726 C   0  0  0  0  0  0  0  0  0  0  0  0
   -2.7023    0.6772    2.6463 O   0  0  0  0  0  0  0  0  0  0  0  0
    1.4212    0.9953    1.9362 C   0  0  0  0  0  0  0  0  0  0  0  0
    0.8368    2.1616    2.4615 O   0  0  0  0  0  0  0  0  0  0  0  0
    2.9203    1.2505    1.6931 C   0  0  0  0  0  0  0  0  0  0  0  0
    3.5769    1.4281    2.9173 O   0  0  0  0  0  0  0  0  0  0  0  0
    5.3004   -1.0639   -0.7522 H   0  0  0  0  0  0  0  0  0  0  0  0
    5.8291   -1.2800    0.9396 H   0  0  0  0  0  0  0  0  0  0  0  0
    6.6435   -0.0835   -0.1058 H   0  0  0  0  0  0  0  0  0  0  0  0
    3.6438   -0.7869    1.6295 H   0  0  0  0  0  0  0  0  0  0  0  0
    1.5558   -1.4956    0.8524 H   0  0  0  0  0  0  0  0  0  0  0  0
    0.7569   -0.4712   -1.9234 H   0  0  0  0  0  0  0  0  0  0  0  0
    0.0534   -1.8380   -1.0005 H   0  0  0  0  0  0  0  0  0  0  0  0
    2.7266   -1.7717   -1.7974 H   0  0  0  0  0  0  0  0  0  0  0  0
    0.7010    1.2802   -0.0871 H   0  0  0  0  0  0  0  0  0  0  0  0
   -1.3529    2.0121    0.7376 H   0  0  0  0  0  0  0  0  0  0  0  0
   -1.7112   -1.0716   -1.3385 H   0  0  0  0  0  0  0  0  0  0  0  0
   -3.3740    0.9154   -2.9736 H   0  0  0  0  0  0  0  0  0  0  0  0
   -2.9800   -0.7636   -3.4514 H   0  0  0  0  0  0  0  0  0  0  0  0
   -1.0393    1.1905   -2.9782 H   0  0  0  0  0  0  0  0  0  0  0  0
   -4.4818    0.1392   -0.8930 H   0  0  0  0  0  0  0  0  0  0  0  0
   -4.3488   -1.8900   -2.0628 H   0  0  0  0  0  0  0  0  0  0  0  0
   -2.6848   -1.4787    0.9864 H   0  0  0  0  0  0  0  0  0  0  0  0
   -5.0234   -1.7774    1.0963 H   0  0  0  0  0  0  0  0  0  0  0  0
   -3.6693    1.4136    0.9888 H   0  0  0  0  0  0  0  0  0  0  0  0
   -3.4195    0.1784    3.0603 H   0  0  0  0  0  0  0  0  0  0  0  0
    1.3016    0.2443    2.7246 H   0  0  0  0  0  0  0  0  0  0  0  0
    0.8538    2.8578    1.7929 H   0  0  0  0  0  0  0  0  0  0  0  0
    3.0383    2.1461    1.0581 H   0  0  0  0  0  0  0  0  0  0  0  0
    3.0199    1.9992    3.4652 H   0  0  0  0  0  0  0  0  0  0  0  0
  1  2  1  0  0  0  0
  2  3  1  0  0  0  0
  3  4  1  0  0  0  0
  4  5  1  0  0  0  0
  5  6  1  0  0  0  0
  6  7  1  0  0  0  0
  5  8  1  0  0  0  0
  8  9  1  0  0  0  0
  9 10  1  0  0  0  0
 10 11  1  0  0  0  0
 11 12  1  0  0  0  0
 12 13  1  0  0  0  0
 13 14  1  0  0  0  0
 12 15  1  0  0  0  0
 15 16  1  0  0  0  0
 15 17  1  0  0  0  0
 17 18  1  0  0  0  0
 10 19  1  0  0  0  0
 17 19  1  0  0  0  0
 19 20  1  0  0  0  0
  8 21  1  0  0  0  0
 21 22  1  0  0  0  0
  3 23  1  0  0  0  0
 21 23  1  0  0  0  0
 23 24  1  0  0  0  0
  1 25  1  0  0  0  0
  1 26  1  0  0  0  0
  1 27  1  0  0  0  0
  3 28  1  0  0  0  0
  5 29  1  0  0  0  0
  6 30  1  0  0  0  0
  6 31  1  0  0  0  0
  7 32  1  0  0  0  0
  8 33  1  0  0  0  0
 10 34  1  0  0  0  0
 12 35  1  0  0  0  0
 13 36  1  0  0  0  0
 13 37  1  0  0  0  0
 14 38  1  0  0  0  0
 15 39  1  0  0  0  0
 16 40  1  0  0  0  0
 17 41  1  0  0  0  0
 18 42  1  0  0  0  0
 19 43  1  0  0  0  0
 20 44  1  0  0  0  0
 21 45  1  0  0  0  0
 22 46  1  0  0  0  0
 23 47  1  0  0  0  0
 24 48  1  0  0  0  0
M  END
