 xtb: 6.7.1 (edcfbbe)
          09212615443D

 48 49  0     0  0            999 V2000
    2.0692    4.5162    0.1461 C   0  0  0  0  0  0  0  0  0  0  0  0
    2.0170    3.3928   -0.7278 O   0  0  0  0  0  0  0  0  0  0  0  0
    1.5579    2.2255   -0.1350 C   0  0  0  0  0  0  0  0  0  0  0  0
    2.4727    1.8084    0.8552 O   0  0  0  0  0  0  0  0  0  0  0  0
    1.9974    0.7254    1.6356 C   0  0  0  0  0  0  0  0  0  0  0  0
    3.2359   -0.0506    2.1163 C   0  0  0  0  0  0  0  0  0  0  0  0
    2.9379   -0.9990    3.1030 O   0  0  0  0  0  0  0  0  0  0  0  0
    1.0106   -0.1931    0.8870 C   0  0  0  0  0  0  0  0  0  0  0  0
   -0.2996    0.3472    1.0464 O   0  0  0  0  0  0  0  0  0  0  0  0
   -1.4230   -0.3923    1.4819 C   0  0  0  0  0  0  0  0  0  0  0  0
   -2.5183    0.0191    0.7141 O   0  0  0  0  0  0  0  0  0  0  0  0
   -2.4511   -0.3955   -0.6485 C   0  0  0  0  0  0  0  0  0  0  0  0
   -3.6879    0.1933   -1.3454 C   0  0  0  0  0  0  0  0  0  0  0  0
   -3.7030   -0.0830   -2.7239 O   0  0  0  0  0  0  0  0  0  0  0  0
   -2.4409   -1.9313   -0.7578 C   0  0  0  0  0  0  0  0  0  0  0  0
   -2.2115   -2.3617   -2.0765 O   0  0  0  0  0  0  0  0  0  0  0  0
   -1.3396   -2.5456    0.1187 C   0  0  0  0  0  0  0  0  0  0  0  0
   -1.5292   -3.9323    0.2799 O   0  0  0  0  0  0  0  0  0  0  0  0
   -1.3860   -1.9306    1.5202 C   0  0  0  0  0  0  0  0  0  0  0  0
   -0.3512   -2.3848    2.3477 O   0  0  0  0  0  0  0  0  0  0  0  0
    1.3674   -0.2564   -0.6134 C   0  0  0  0  0  0  0  0  0  0  0  0
    2.5501   -0.9973   -0.7400 O   0  0  0  0  0  0  0  0  0  0  0  0
    1.4743    1.1553   -1.2319 C   0  0  0  0  0  0  0  0  0  0  0  0
    0.3687    1.3598   -2.0733 O   0  0  0  0  0  0  0  0  0  0  0  0
    2.7722    4.3329    0.9596 H   0  0  0  0  0  0  0  0  0  0  0  0
    1.0765    4.7233    0.5560 H   0  0  0  0  0  0  0  0  0  0  0  0
    2.4074    5.3451   -0.4689 H   0  0  0  0  0  0  0  0  0  0  0  0
    0.5609    2.3778    0.3229 H   0  0  0  0  0  0  0  0  0  0  0  0
    1.4511    1.1324    2.5040 H   0  0  0  0  0  0  0  0  0  0  0  0
    3.9743    0.6809    2.4642 H   0  0  0  0  0  0  0  0  0  0  0  0
    3.6534   -0.6007    1.2720 H   0  0  0  0  0  0  0  0  0  0  0  0
    2.6561   -0.5516    3.9135 H   0  0  0  0  0  0  0  0  0  0  0  0
    1.0883   -1.1887    1.3278 H   0  0  0  0  0  0  0  0  0  0  0  0
   -1.6581   -0.0444    2.5007 H   0  0  0  0  0  0  0  0  0  0  0  0
   -1.5395    0.0095   -1.1125 H   0  0  0  0  0  0  0  0  0  0  0  0
   -3.7212    1.2672   -1.1420 H   0  0  0  0  0  0  0  0  0  0  0  0
   -4.5856   -0.2662   -0.9253 H   0  0  0  0  0  0  0  0  0  0  0  0
   -3.0569    0.4792   -3.1746 H   0  0  0  0  0  0  0  0  0  0  0  0
   -3.4085   -2.3114   -0.3893 H   0  0  0  0  0  0  0  0  0  0  0  0
   -2.8521   -1.9139   -2.6588 H   0  0  0  0  0  0  0  0  0  0  0  0
   -0.3633   -2.3606   -0.3455 H   0  0  0  0  0  0  0  0  0  0  0  0
   -1.5797   -4.3413   -0.5965 H   0  0  0  0  0  0  0  0  0  0  0  0
   -2.3604   -2.2166    1.9532 H   0  0  0  0  0  0  0  0  0  0  0  0
   -0.3670   -3.3558    2.3472 H   0  0  0  0  0  0  0  0  0  0  0  0
    0.5431   -0.7511   -1.1468 H   0  0  0  0  0  0  0  0  0  0  0  0
    2.7230   -1.1895   -1.6741 H   0  0  0  0  0  0  0  0  0  0  0  0
    2.4154    1.2201   -1.7980 H   0  0  0  0  0  0  0  0  0  0  0  0
    0.4532    2.2339   -2.4839 H   0  0  0  0  0  0  0  0  0  0  0  0
  1  2  1  0  0  0  0
  2  3  1  0  0  0  0
  3  4  1  0  0  0  0
  4  5  1  0  0  0  0
  5  6  1  0  0  0  0
  6  7  1  0  0  0  0
  5  8  1  0  0  0  0
  8  9  1  0  0  0  0
  9 10  1  0  0  0  0
 10 11  1  0  0  0  0
 11 12  1  0  0  0  0
 12 13  1  0  0  0  0
 13 14  1  0  0  0  0
 12 15  1  0  0  0  0
 15 16  1  0  0  0  0
 15 17  1  0  0  0  0
 17 18  1  0  0  0  0
 10 19  1  0  0  0  0
 17 19  1  0  0  0  0
 19 20  1  0  0  0  0
  8 21  1  0  0  0  0
 21 22  1  0  0  0  0
  3 23  1  0  0  0  0
 21 23  1  0  0  0  0
 23 24  1  0  0  0  0
  1 25  1  0  0  0  0
  1 26  1  0  0  0  0
  1 27  1  0  0  0  0
  3 28  1  0  0  0  0
  5 29  1  0  0  0  0
  6 30  1  0  0  0  0
  6 31  1  0  0  0  0
  7 32  1  0  0  0  0
  8 33  1  0  0  0  0
 10 34  1  0  0  0  0
 12 35  1  0  0  0  0
 13 36  1  0  0  0  0
 13 37  1  0  0  0  0
 14 38  1  0  0  0  0
 15 39  1  0  0  0  0
 16 40  1  0  0  0  0
 17 41  1  0  0  0  0
 18 42  1  0  0  0  0
 19 43  1  0  0  0  0
 20 44  1  0  0  0  0
 21 45  1  0  0  0  0
 22 46  1  0  0  0  0
 23 47  1  0  0  0  0
 24 48  1  0  0  0  0
M  END
