 xtb: 6.7.1 (edcfbbe)
          09222613013D

 48 49  0     0  0            999 V2000
    5.1052    2.6390   -0.9277 C   0  0  0  0  0  0  0  0  0  0  0  0
    4.5668    1.3379   -1.1318 O   0  0  0  0  0  0  0  0  0  0  0  0
    3.2023    1.2375   -0.9415 C   0  0  0  0  0  0  0  0  0  0  0  0
    2.8875    1.4202    0.4215 O   0  0  0  0  0  0  0  0  0  0  0  0
    1.5080    1.2858    0.6940 C   0  0  0  0  0  0  0  0  0  0  0  0
    1.3134    1.6046    2.1831 C   0  0  0  0  0  0  0  0  0  0  0  0
    1.5834    2.9465    2.4800 O   0  0  0  0  0  0  0  0  0  0  0  0
    0.9832   -0.1282    0.3570 C   0  0  0  0  0  0  0  0  0  0  0  0
   -0.4107   -0.1185    0.5865 O   0  0  0  0  0  0  0  0  0  0  0  0
   -0.9845   -1.1139    1.4031 C   0  0  0  0  0  0  0  0  0  0  0  0
   -2.1134   -0.5403    1.9950 O   0  0  0  0  0  0  0  0  0  0  0  0
   -3.0824   -0.1402    1.0263 C   0  0  0  0  0  0  0  0  0  0  0  0
   -4.2711    0.4529    1.7992 C   0  0  0  0  0  0  0  0  0  0  0  0
   -5.2212    1.0339    0.9399 O   0  0  0  0  0  0  0  0  0  0  0  0
   -3.5322   -1.3129    0.1327 C   0  0  0  0  0  0  0  0  0  0  0  0
   -4.3328   -0.8668   -0.9332 O   0  0  0  0  0  0  0  0  0  0  0  0
   -2.3171   -2.0417   -0.4624 C   0  0  0  0  0  0  0  0  0  0  0  0
   -2.6953   -3.2178   -1.1346 O   0  0  0  0  0  0  0  0  0  0  0  0
   -1.3942   -2.4151    0.6944 C   0  0  0  0  0  0  0  0  0  0  0  0
   -0.2680   -3.1575    0.3361 O   0  0  0  0  0  0  0  0  0  0  0  0
    1.2780   -0.3637   -1.1396 C   0  0  0  0  0  0  0  0  0  0  0  0
    0.8733   -1.6345   -1.5548 O   0  0  0  0  0  0  0  0  0  0  0  0
    2.7753   -0.1618   -1.4026 C   0  0  0  0  0  0  0  0  0  0  0  0
    2.9897   -0.3361   -2.7786 O   0  0  0  0  0  0  0  0  0  0  0  0
    5.0098    2.9377    0.1170 H   0  0  0  0  0  0  0  0  0  0  0  0
    4.5965    3.3669   -1.5670 H   0  0  0  0  0  0  0  0  0  0  0  0
    6.1542    2.5667   -1.2018 H   0  0  0  0  0  0  0  0  0  0  0  0
    2.6606    2.0025   -1.5419 H   0  0  0  0  0  0  0  0  0  0  0  0
    0.9356    2.0096    0.0929 H   0  0  0  0  0  0  0  0  0  0  0  0
    1.9582    0.9352    2.7673 H   0  0  0  0  0  0  0  0  0  0  0  0
    0.2700    1.4281    2.4498 H   0  0  0  0  0  0  0  0  0  0  0  0
    2.4984    3.1313    2.2306 H   0  0  0  0  0  0  0  0  0  0  0  0
    1.4783   -0.8944    0.9607 H   0  0  0  0  0  0  0  0  0  0  0  0
   -0.3006   -1.3642    2.2292 H   0  0  0  0  0  0  0  0  0  0  0  0
   -2.6406    0.6278    0.3748 H   0  0  0  0  0  0  0  0  0  0  0  0
   -3.8872    1.1703    2.5307 H   0  0  0  0  0  0  0  0  0  0  0  0
   -4.7858   -0.3460    2.3378 H   0  0  0  0  0  0  0  0  0  0  0  0
   -4.8849    1.8773    0.6090 H   0  0  0  0  0  0  0  0  0  0  0  0
   -4.0880   -2.0393    0.7507 H   0  0  0  0  0  0  0  0  0  0  0  0
   -5.0406   -0.3109   -0.5641 H   0  0  0  0  0  0  0  0  0  0  0  0
   -1.7824   -1.3657   -1.1455 H   0  0  0  0  0  0  0  0  0  0  0  0
   -3.3793   -2.9839   -1.7764 H   0  0  0  0  0  0  0  0  0  0  0  0
   -1.9874   -2.9874    1.4324 H   0  0  0  0  0  0  0  0  0  0  0  0
   -0.5038   -3.7004   -0.4288 H   0  0  0  0  0  0  0  0  0  0  0  0
    0.7224    0.4039   -1.7087 H   0  0  0  0  0  0  0  0  0  0  0  0
    1.2816   -1.7997   -2.4182 H   0  0  0  0  0  0  0  0  0  0  0  0
    3.3475   -0.8989   -0.8192 H   0  0  0  0  0  0  0  0  0  0  0  0
    3.9242   -0.1761   -2.9697 H   0  0  0  0  0  0  0  0  0  0  0  0
  1  2  1  0  0  0  0
  2  3  1  0  0  0  0
  3  4  1  0  0  0  0
  4  5  1  0  0  0  0
  5  6  1  0  0  0  0
  6  7  1  0  0  0  0
  5  8  1  0  0  0  0
  8  9  1  0  0  0  0
  9 10  1  0  0  0  0
 10 11  1  0  0  0  0
 11 12  1  0  0  0  0
 12 13  1  0  0  0  0
 13 14  1  0  0  0  0
 12 15  1  0  0  0  0
 15 16  1  0  0  0  0
 15 17  1  0  0  0  0
 17 18  1  0  0  0  0
 10 19  1  0  0  0  0
 17 19  1  0  0  0  0
 19 20  1  0  0  0  0
  8 21  1  0  0  0  0
 21 22  1  0  0  0  0
  3 23  1  0  0  0  0
 21 23  1  0  0  0  0
 23 24  1  0  0  0  0
  1 25  1  0  0  0  0
  1 26  1  0  0  0  0
  1 27  1  0  0  0  0
  3 28  1  0  0  0  0
  5 29  1  0  0  0  0
  6 30  1  0  0  0  0
  6 31  1  0  0  0  0
  7 32  1  0  0  0  0
  8 33  1  0  0  0  0
 10 34  1  0  0  0  0
 12 35  1  0  0  0  0
 13 36  1  0  0  0  0
 13 37  1  0  0  0  0
 14 38  1  0  0  0  0
 15 39  1  0  0  0  0
 16 40  1  0  0  0  0
 17 41  1  0  0  0  0
 18 42  1  0  0  0  0
 19 43  1  0  0  0  0
 20 44  1  0  0  0  0
 21 45  1  0  0  0  0
 22 46  1  0  0  0  0
 23 47  1  0  0  0  0
 24 48  1  0  0  0  0
M  END
