 xtb: 6.7.1 (edcfbbe)
          09222613023D

 48 49  0     0  0            999 V2000
    4.8604    1.1299    0.4786 C   0  0  0  0  0  0  0  0  0  0  0  0
    3.8606    0.4510   -0.2681 O   0  0  0  0  0  0  0  0  0  0  0  0
    3.2248    1.2497   -1.2192 C   0  0  0  0  0  0  0  0  0  0  0  0
    2.4564    2.2701   -0.6386 O   0  0  0  0  0  0  0  0  0  0  0  0
    1.1066    1.9373   -0.3321 C   0  0  0  0  0  0  0  0  0  0  0  0
    0.6942    2.8350    0.8421 C   0  0  0  0  0  0  0  0  0  0  0  0
    0.6997    4.1924    0.4935 O   0  0  0  0  0  0  0  0  0  0  0  0
    0.9323    0.4457    0.0016 C   0  0  0  0  0  0  0  0  0  0  0  0
   -0.4395    0.2654    0.3255 O   0  0  0  0  0  0  0  0  0  0  0  0
   -0.7979   -0.3898    1.5167 C   0  0  0  0  0  0  0  0  0  0  0  0
   -2.1117   -0.0145    1.8061 O   0  0  0  0  0  0  0  0  0  0  0  0
   -3.0424   -0.3921    0.7947 C   0  0  0  0  0  0  0  0  0  0  0  0
   -4.4174    0.1284    1.2433 C   0  0  0  0  0  0  0  0  0  0  0  0
   -5.4062   -0.0848    0.2663 O   0  0  0  0  0  0  0  0  0  0  0  0
   -3.0664   -1.9183    0.5943 C   0  0  0  0  0  0  0  0  0  0  0  0
   -3.8541   -2.2902   -0.5077 O   0  0  0  0  0  0  0  0  0  0  0  0
   -1.6427   -2.4374    0.3505 C   0  0  0  0  0  0  0  0  0  0  0  0
   -1.5897   -3.8425    0.3595 O   0  0  0  0  0  0  0  0  0  0  0  0
   -0.7449   -1.9304    1.4799 C   0  0  0  0  0  0  0  0  0  0  0  0
    0.5759   -2.3939    1.3737 O   0  0  0  0  0  0  0  0  0  0  0  0
    1.3000   -0.3785   -1.2508 C   0  0  0  0  0  0  0  0  0  0  0  0
    1.7764   -1.6631   -0.9712 O   0  0  0  0  0  0  0  0  0  0  0  0
    2.3679    0.3338   -2.1048 C   0  0  0  0  0  0  0  0  0  0  0  0
    1.7240    1.0573   -3.1193 O   0  0  0  0  0  0  0  0  0  0  0  0
    4.4338    1.9773    1.0211 H   0  0  0  0  0  0  0  0  0  0  0  0
    5.6549    1.4876   -0.1842 H   0  0  0  0  0  0  0  0  0  0  0  0
    5.2567    0.3974    1.1765 H   0  0  0  0  0  0  0  0  0  0  0  0
    3.9796    1.7844   -1.8262 H   0  0  0  0  0  0  0  0  0  0  0  0
    0.4729    2.1652   -1.2012 H   0  0  0  0  0  0  0  0  0  0  0  0
    1.3777    2.6480    1.6834 H   0  0  0  0  0  0  0  0  0  0  0  0
   -0.3257    2.5921    1.1449 H   0  0  0  0  0  0  0  0  0  0  0  0
    1.5603    4.3958    0.1028 H   0  0  0  0  0  0  0  0  0  0  0  0
    1.5789    0.1637    0.8399 H   0  0  0  0  0  0  0  0  0  0  0  0
   -0.1817   -0.0291    2.3546 H   0  0  0  0  0  0  0  0  0  0  0  0
   -2.7552    0.0764   -0.1574 H   0  0  0  0  0  0  0  0  0  0  0  0
   -4.3212    1.1858    1.5064 H   0  0  0  0  0  0  0  0  0  0  0  0
   -4.7346   -0.4204    2.1331 H   0  0  0  0  0  0  0  0  0  0  0  0
   -5.3025    0.5597   -0.4461 H   0  0  0  0  0  0  0  0  0  0  0  0
   -3.4468   -2.3916    1.5161 H   0  0  0  0  0  0  0  0  0  0  0  0
   -4.7177   -1.8507   -0.4213 H   0  0  0  0  0  0  0  0  0  0  0  0
   -1.2808   -2.0463   -0.6128 H   0  0  0  0  0  0  0  0  0  0  0  0
   -2.2520   -4.1714   -0.2625 H   0  0  0  0  0  0  0  0  0  0  0  0
   -1.1746   -2.2675    2.4365 H   0  0  0  0  0  0  0  0  0  0  0  0
    0.5356   -3.3620    1.3171 H   0  0  0  0  0  0  0  0  0  0  0  0
    0.3874   -0.4328   -1.8717 H   0  0  0  0  0  0  0  0  0  0  0  0
    1.3971   -1.9701   -0.1229 H   0  0  0  0  0  0  0  0  0  0  0  0
    3.0154   -0.4539   -2.5132 H   0  0  0  0  0  0  0  0  0  0  0  0
    2.3763    1.4019   -3.7440 H   0  0  0  0  0  0  0  0  0  0  0  0
  1  2  1  0  0  0  0
  2  3  1  0  0  0  0
  3  4  1  0  0  0  0
  4  5  1  0  0  0  0
  5  6  1  0  0  0  0
  6  7  1  0  0  0  0
  5  8  1  0  0  0  0
  8  9  1  0  0  0  0
  9 10  1  0  0  0  0
 10 11  1  0  0  0  0
 11 12  1  0  0  0  0
 12 13  1  0  0  0  0
 13 14  1  0  0  0  0
 12 15  1  0  0  0  0
 15 16  1  0  0  0  0
 15 17  1  0  0  0  0
 17 18  1  0  0  0  0
 10 19  1  0  0  0  0
 17 19  1  0  0  0  0
 19 20  1  0  0  0  0
  8 21  1  0  0  0  0
 21 22  1  0  0  0  0
  3 23  1  0  0  0  0
 21 23  1  0  0  0  0
 23 24  1  0  0  0  0
  1 25  1  0  0  0  0
  1 26  1  0  0  0  0
  1 27  1  0  0  0  0
  3 28  1  0  0  0  0
  5 29  1  0  0  0  0
  6 30  1  0  0  0  0
  6 31  1  0  0  0  0
  7 32  1  0  0  0  0
  8 33  1  0  0  0  0
 10 34  1  0  0  0  0
 12 35  1  0  0  0  0
 13 36  1  0  0  0  0
 13 37  1  0  0  0  0
 14 38  1  0  0  0  0
 15 39  1  0  0  0  0
 16 40  1  0  0  0  0
 17 41  1  0  0  0  0
 18 42  1  0  0  0  0
 19 43  1  0  0  0  0
 20 44  1  0  0  0  0
 21 45  1  0  0  0  0
 22 46  1  0  0  0  0
 23 47  1  0  0  0  0
 24 48  1  0  0  0  0
M  END
