 xtb: 6.7.1 (edcfbbe)
          09222613083D

 48 49  0     0  0            999 V2000
    5.5769    1.6585   -0.7902 C   0  0  0  0  0  0  0  0  0  0  0  0
    4.7643    0.6981   -0.1284 O   0  0  0  0  0  0  0  0  0  0  0  0
    3.5800    0.4011   -0.7698 C   0  0  0  0  0  0  0  0  0  0  0  0
    2.6990    1.4988   -0.6274 O   0  0  0  0  0  0  0  0  0  0  0  0
    1.4222    1.2863   -1.1973 C   0  0  0  0  0  0  0  0  0  0  0  0
    0.6466    2.6047   -1.0869 C   0  0  0  0  0  0  0  0  0  0  0  0
    1.2793    3.6428   -1.7839 O   0  0  0  0  0  0  0  0  0  0  0  0
    0.7159    0.1315   -0.4685 C   0  0  0  0  0  0  0  0  0  0  0  0
   -0.5722   -0.0861   -1.0324 O   0  0  0  0  0  0  0  0  0  0  0  0
   -1.6690   -0.1744   -0.1842 C   0  0  0  0  0  0  0  0  0  0  0  0
   -1.4115   -1.0904    0.8626 O   0  0  0  0  0  0  0  0  0  0  0  0
   -2.5899   -1.6051    1.4799 C   0  0  0  0  0  0  0  0  0  0  0  0
   -2.8646   -3.0282    0.9567 C   0  0  0  0  0  0  0  0  0  0  0  0
   -1.8004   -3.9008    1.2229 O   0  0  0  0  0  0  0  0  0  0  0  0
   -3.8277   -0.7100    1.2732 C   0  0  0  0  0  0  0  0  0  0  0  0
   -4.8146   -0.9698    2.2360 O   0  0  0  0  0  0  0  0  0  0  0  0
   -3.4959    0.8028    1.2145 C   0  0  0  0  0  0  0  0  0  0  0  0
   -4.5118    1.4873    0.5271 O   0  0  0  0  0  0  0  0  0  0  0  0
   -2.1537    1.1182    0.5055 C   0  0  0  0  0  0  0  0  0  0  0  0
   -1.2049    1.6123    1.4135 O   0  0  0  0  0  0  0  0  0  0  0  0
    1.5677   -1.1378   -0.6103 C   0  0  0  0  0  0  0  0  0  0  0  0
    1.0344   -2.2469    0.0687 O   0  0  0  0  0  0  0  0  0  0  0  0
    3.0056   -0.8690   -0.1267 C   0  0  0  0  0  0  0  0  0  0  0  0
    3.8432   -1.9402   -0.4690 O   0  0  0  0  0  0  0  0  0  0  0  0
    5.0853    2.6329   -0.8167 H   0  0  0  0  0  0  0  0  0  0  0  0
    5.8027    1.3322   -1.8101 H   0  0  0  0  0  0  0  0  0  0  0  0
    6.4919    1.7173   -0.2067 H   0  0  0  0  0  0  0  0  0  0  0  0
    3.7459    0.2047   -1.8512 H   0  0  0  0  0  0  0  0  0  0  0  0
    1.5310    1.0211   -2.2616 H   0  0  0  0  0  0  0  0  0  0  0  0
    0.5197    2.8583   -0.0273 H   0  0  0  0  0  0  0  0  0  0  0  0
   -0.3333    2.4727   -1.5475 H   0  0  0  0  0  0  0  0  0  0  0  0
    2.1718    3.7385   -1.4263 H   0  0  0  0  0  0  0  0  0  0  0  0
    0.6370    0.3964    0.5898 H   0  0  0  0  0  0  0  0  0  0  0  0
   -2.4633   -0.5383   -0.8509 H   0  0  0  0  0  0  0  0  0  0  0  0
   -2.3484   -1.6735    2.5485 H   0  0  0  0  0  0  0  0  0  0  0  0
   -3.0694   -2.9792   -0.1215 H   0  0  0  0  0  0  0  0  0  0  0  0
   -3.7408   -3.4322    1.4675 H   0  0  0  0  0  0  0  0  0  0  0  0
   -1.0200   -3.5917    0.7407 H   0  0  0  0  0  0  0  0  0  0  0  0
   -4.3040   -0.9753    0.3215 H   0  0  0  0  0  0  0  0  0  0  0  0
   -4.4732   -0.7988    3.1252 H   0  0  0  0  0  0  0  0  0  0  0  0
   -3.4192    1.1897    2.2454 H   0  0  0  0  0  0  0  0  0  0  0  0
   -5.3665    1.2631    0.9226 H   0  0  0  0  0  0  0  0  0  0  0  0
   -2.3274    1.9100   -0.2257 H   0  0  0  0  0  0  0  0  0  0  0  0
   -1.0129    0.9207    2.0648 H   0  0  0  0  0  0  0  0  0  0  0  0
    1.6005   -1.4271   -1.6678 H   0  0  0  0  0  0  0  0  0  0  0  0
    0.6604   -1.9537    0.9123 H   0  0  0  0  0  0  0  0  0  0  0  0
    3.0077   -0.7114    0.9641 H   0  0  0  0  0  0  0  0  0  0  0  0
    3.4058   -2.7597   -0.1912 H   0  0  0  0  0  0  0  0  0  0  0  0
  1  2  1  0  0  0  0
  2  3  1  0  0  0  0
  3  4  1  0  0  0  0
  4  5  1  0  0  0  0
  5  6  1  0  0  0  0
  6  7  1  0  0  0  0
  5  8  1  0  0  0  0
  8  9  1  0  0  0  0
  9 10  1  0  0  0  0
 10 11  1  0  0  0  0
 11 12  1  0  0  0  0
 12 13  1  0  0  0  0
 13 14  1  0  0  0  0
 12 15  1  0  0  0  0
 15 16  1  0  0  0  0
 15 17  1  0  0  0  0
 17 18  1  0  0  0  0
 10 19  1  0  0  0  0
 17 19  1  0  0  0  0
 19 20  1  0  0  0  0
  8 21  1  0  0  0  0
 21 22  1  0  0  0  0
  3 23  1  0  0  0  0
 21 23  1  0  0  0  0
 23 24  1  0  0  0  0
  1 25  1  0  0  0  0
  1 26  1  0  0  0  0
  1 27  1  0  0  0  0
  3 28  1  0  0  0  0
  5 29  1  0  0  0  0
  6 30  1  0  0  0  0
  6 31  1  0  0  0  0
  7 32  1  0  0  0  0
  8 33  1  0  0  0  0
 10 34  1  0  0  0  0
 12 35  1  0  0  0  0
 13 36  1  0  0  0  0
 13 37  1  0  0  0  0
 14 38  1  0  0  0  0
 15 39  1  0  0  0  0
 16 40  1  0  0  0  0
 17 41  1  0  0  0  0
 18 42  1  0  0  0  0
 19 43  1  0  0  0  0
 20 44  1  0  0  0  0
 21 45  1  0  0  0  0
 22 46  1  0  0  0  0
 23 47  1  0  0  0  0
 24 48  1  0  0  0  0
M  END
