 xtb: 6.7.1 (edcfbbe)
          09222613243D

 48 49  0     0  0            999 V2000
    5.9972   -0.3321   -0.5923 C   0  0  0  0  0  0  0  0  0  0  0  0
    4.8634    0.3535   -1.0897 O   0  0  0  0  0  0  0  0  0  0  0  0
    3.8574    0.5229   -0.1644 C   0  0  0  0  0  0  0  0  0  0  0  0
    3.2923   -0.7443    0.1211 O   0  0  0  0  0  0  0  0  0  0  0  0
    2.2203   -0.6975    1.0264 C   0  0  0  0  0  0  0  0  0  0  0  0
    1.8256   -2.1378    1.3732 C   0  0  0  0  0  0  0  0  0  0  0  0
    1.0896   -2.2111    2.5650 O   0  0  0  0  0  0  0  0  0  0  0  0
    1.0571    0.0939    0.4002 C   0  0  0  0  0  0  0  0  0  0  0  0
   -0.0345    0.1536    1.3348 O   0  0  0  0  0  0  0  0  0  0  0  0
   -1.3195   -0.1690    0.9367 C   0  0  0  0  0  0  0  0  0  0  0  0
   -1.7813    0.8587    0.0602 O   0  0  0  0  0  0  0  0  0  0  0  0
   -3.1019    0.7153   -0.4433 C   0  0  0  0  0  0  0  0  0  0  0  0
   -3.8239    2.0620   -0.2319 C   0  0  0  0  0  0  0  0  0  0  0  0
   -5.0927    2.0907   -0.8388 O   0  0  0  0  0  0  0  0  0  0  0  0
   -3.8873   -0.4304    0.2176 C   0  0  0  0  0  0  0  0  0  0  0  0
   -5.0919   -0.6657   -0.4628 O   0  0  0  0  0  0  0  0  0  0  0  0
   -3.0941   -1.7559    0.2200 C   0  0  0  0  0  0  0  0  0  0  0  0
   -3.4365   -2.5296    1.3381 O   0  0  0  0  0  0  0  0  0  0  0  0
   -1.5670   -1.5298    0.2626 C   0  0  0  0  0  0  0  0  0  0  0  0
   -0.9900   -1.6216   -1.0115 O   0  0  0  0  0  0  0  0  0  0  0  0
    1.5296    1.5134    0.0686 C   0  0  0  0  0  0  0  0  0  0  0  0
    0.5790    2.2350   -0.6795 O   0  0  0  0  0  0  0  0  0  0  0  0
    2.8203    1.4807   -0.7655 C   0  0  0  0  0  0  0  0  0  0  0  0
    3.3917    2.7584   -0.8173 O   0  0  0  0  0  0  0  0  0  0  0  0
    5.7331   -1.3432   -0.2738 H   0  0  0  0  0  0  0  0  0  0  0  0
    6.4392    0.2117    0.2501 H   0  0  0  0  0  0  0  0  0  0  0  0
    6.7049   -0.3736   -1.4166 H   0  0  0  0  0  0  0  0  0  0  0  0
    4.2461    0.9669    0.7774 H   0  0  0  0  0  0  0  0  0  0  0  0
    2.5298   -0.1859    1.9549 H   0  0  0  0  0  0  0  0  0  0  0  0
    2.7354   -2.7219    1.5273 H   0  0  0  0  0  0  0  0  0  0  0  0
    1.2721   -2.5733    0.5300 H   0  0  0  0  0  0  0  0  0  0  0  0
    0.4307   -1.5050    2.5542 H   0  0  0  0  0  0  0  0  0  0  0  0
    0.7577   -0.4119   -0.5208 H   0  0  0  0  0  0  0  0  0  0  0  0
   -1.8883   -0.1457    1.8794 H   0  0  0  0  0  0  0  0  0  0  0  0
   -3.0512    0.5114   -1.5275 H   0  0  0  0  0  0  0  0  0  0  0  0
   -3.1786    2.8666   -0.6017 H   0  0  0  0  0  0  0  0  0  0  0  0
   -3.9917    2.2181    0.8366 H   0  0  0  0  0  0  0  0  0  0  0  0
   -4.9907    2.1555   -1.7955 H   0  0  0  0  0  0  0  0  0  0  0  0
   -4.0909   -0.1546    1.2660 H   0  0  0  0  0  0  0  0  0  0  0  0
   -5.5774    0.1736   -0.5181 H   0  0  0  0  0  0  0  0  0  0  0  0
   -3.3324   -2.2900   -0.7127 H   0  0  0  0  0  0  0  0  0  0  0  0
   -4.3767   -2.7398    1.2877 H   0  0  0  0  0  0  0  0  0  0  0  0
   -1.1319   -2.3338    0.8618 H   0  0  0  0  0  0  0  0  0  0  0  0
   -1.2710   -0.8679   -1.5461 H   0  0  0  0  0  0  0  0  0  0  0  0
    1.7338    2.0386    1.0171 H   0  0  0  0  0  0  0  0  0  0  0  0
   -0.3005    2.0157   -0.3359 H   0  0  0  0  0  0  0  0  0  0  0  0
    2.5791    1.1182   -1.7756 H   0  0  0  0  0  0  0  0  0  0  0  0
    2.7166    3.3569   -1.1621 H   0  0  0  0  0  0  0  0  0  0  0  0
  1  2  1  0  0  0  0
  2  3  1  0  0  0  0
  3  4  1  0  0  0  0
  4  5  1  0  0  0  0
  5  6  1  0  0  0  0
  6  7  1  0  0  0  0
  5  8  1  0  0  0  0
  8  9  1  0  0  0  0
  9 10  1  0  0  0  0
 10 11  1  0  0  0  0
 11 12  1  0  0  0  0
 12 13  1  0  0  0  0
 13 14  1  0  0  0  0
 12 15  1  0  0  0  0
 15 16  1  0  0  0  0
 15 17  1  0  0  0  0
 17 18  1  0  0  0  0
 10 19  1  0  0  0  0
 17 19  1  0  0  0  0
 19 20  1  0  0  0  0
  8 21  1  0  0  0  0
 21 22  1  0  0  0  0
  3 23  1  0  0  0  0
 21 23  1  0  0  0  0
 23 24  1  0  0  0  0
  1 25  1  0  0  0  0
  1 26  1  0  0  0  0
  1 27  1  0  0  0  0
  3 28  1  0  0  0  0
  5 29  1  0  0  0  0
  6 30  1  0  0  0  0
  6 31  1  0  0  0  0
  7 32  1  0  0  0  0
  8 33  1  0  0  0  0
 10 34  1  0  0  0  0
 12 35  1  0  0  0  0
 13 36  1  0  0  0  0
 13 37  1  0  0  0  0
 14 38  1  0  0  0  0
 15 39  1  0  0  0  0
 16 40  1  0  0  0  0
 17 41  1  0  0  0  0
 18 42  1  0  0  0  0
 19 43  1  0  0  0  0
 20 44  1  0  0  0  0
 21 45  1  0  0  0  0
 22 46  1  0  0  0  0
 23 47  1  0  0  0  0
 24 48  1  0  0  0  0
M  END
