 xtb: 6.7.1 (edcfbbe)
          09222613273D

 48 49  0     0  0            999 V2000
    5.6580   -0.4063    0.2632 C   0  0  0  0  0  0  0  0  0  0  0  0
    4.7806    0.6357    0.6439 O   0  0  0  0  0  0  0  0  0  0  0  0
    3.5467    0.2140    1.0872 C   0  0  0  0  0  0  0  0  0  0  0  0
    2.7910   -0.2153   -0.0300 O   0  0  0  0  0  0  0  0  0  0  0  0
    1.4919   -0.6736    0.2895 C   0  0  0  0  0  0  0  0  0  0  0  0
    0.9496   -1.2913   -1.0005 C   0  0  0  0  0  0  0  0  0  0  0  0
    1.8367   -2.2387   -1.5210 O   0  0  0  0  0  0  0  0  0  0  0  0
    0.6546    0.4869    0.8565 C   0  0  0  0  0  0  0  0  0  0  0  0
   -0.6407    0.0537    1.2379 O   0  0  0  0  0  0  0  0  0  0  0  0
   -1.7221    0.8342    0.8005 C   0  0  0  0  0  0  0  0  0  0  0  0
   -1.7422    1.1249   -0.5696 O   0  0  0  0  0  0  0  0  0  0  0  0
   -2.2073    0.1196   -1.4621 C   0  0  0  0  0  0  0  0  0  0  0  0
   -2.3827    0.8029   -2.8283 C   0  0  0  0  0  0  0  0  0  0  0  0
   -2.6713   -0.1241   -3.8473 O   0  0  0  0  0  0  0  0  0  0  0  0
   -3.5138   -0.5467   -1.0055 C   0  0  0  0  0  0  0  0  0  0  0  0
   -3.8299   -1.6558   -1.8098 O   0  0  0  0  0  0  0  0  0  0  0  0
   -3.3434   -1.0362    0.4345 C   0  0  0  0  0  0  0  0  0  0  0  0
   -4.5202   -1.6285    0.9254 O   0  0  0  0  0  0  0  0  0  0  0  0
   -3.0192    0.1794    1.3022 C   0  0  0  0  0  0  0  0  0  0  0  0
   -2.8879   -0.1464    2.6506 O   0  0  0  0  0  0  0  0  0  0  0  0
    1.3757    1.0879    2.0742 C   0  0  0  0  0  0  0  0  0  0  0  0
    0.7505    2.2540    2.5534 O   0  0  0  0  0  0  0  0  0  0  0  0
    2.8558    1.3929    1.7800 C   0  0  0  0  0  0  0  0  0  0  0  0
    3.5326    1.6663    2.9750 O   0  0  0  0  0  0  0  0  0  0  0  0
    5.2761   -0.9505   -0.6051 H   0  0  0  0  0  0  0  0  0  0  0  0
    5.8116   -1.1068    1.0911 H   0  0  0  0  0  0  0  0  0  0  0  0
    6.5991    0.0758    0.0100 H   0  0  0  0  0  0  0  0  0  0  0  0
    3.6385   -0.6239    1.8091 H   0  0  0  0  0  0  0  0  0  0  0  0
    1.5596   -1.4582    1.0613 H   0  0  0  0  0  0  0  0  0  0  0  0
    0.7792   -0.4847   -1.7295 H   0  0  0  0  0  0  0  0  0  0  0  0
    0.0205   -1.8208   -0.7861 H   0  0  0  0  0  0  0  0  0  0  0  0
    2.7160   -1.8386   -1.5027 H   0  0  0  0  0  0  0  0  0  0  0  0
    0.5658    1.2562    0.0732 H   0  0  0  0  0  0  0  0  0  0  0  0
   -1.6430    1.8328    1.2661 H   0  0  0  0  0  0  0  0  0  0  0  0
   -1.4620   -0.6809   -1.5587 H   0  0  0  0  0  0  0  0  0  0  0  0
   -1.4802    1.3822   -3.0522 H   0  0  0  0  0  0  0  0  0  0  0  0
   -3.2311    1.4893   -2.7893 H   0  0  0  0  0  0  0  0  0  0  0  0
   -1.8913   -0.6673   -4.0135 H   0  0  0  0  0  0  0  0  0  0  0  0
   -4.3343    0.1899   -1.0303 H   0  0  0  0  0  0  0  0  0  0  0  0
   -3.8114   -1.3661   -2.7357 H   0  0  0  0  0  0  0  0  0  0  0  0
   -2.5090   -1.7529    0.4823 H   0  0  0  0  0  0  0  0  0  0  0  0
   -4.8310   -2.2420    0.2480 H   0  0  0  0  0  0  0  0  0  0  0  0
   -3.8332    0.9144    1.1669 H   0  0  0  0  0  0  0  0  0  0  0  0
   -3.5654   -0.8086    2.8442 H   0  0  0  0  0  0  0  0  0  0  0  0
    1.3088    0.3731    2.9017 H   0  0  0  0  0  0  0  0  0  0  0  0
    0.6866    2.8980    1.8367 H   0  0  0  0  0  0  0  0  0  0  0  0
    2.9216    2.2541    1.0924 H   0  0  0  0  0  0  0  0  0  0  0  0
    2.9655    2.2457    3.5032 H   0  0  0  0  0  0  0  0  0  0  0  0
  1  2  1  0  0  0  0
  2  3  1  0  0  0  0
  3  4  1  0  0  0  0
  4  5  1  0  0  0  0
  5  6  1  0  0  0  0
  6  7  1  0  0  0  0
  5  8  1  0  0  0  0
  8  9  1  0  0  0  0
  9 10  1  0  0  0  0
 10 11  1  0  0  0  0
 11 12  1  0  0  0  0
 12 13  1  0  0  0  0
 13 14  1  0  0  0  0
 12 15  1  0  0  0  0
 15 16  1  0  0  0  0
 15 17  1  0  0  0  0
 17 18  1  0  0  0  0
 10 19  1  0  0  0  0
 17 19  1  0  0  0  0
 19 20  1  0  0  0  0
  8 21  1  0  0  0  0
 21 22  1  0  0  0  0
  3 23  1  0  0  0  0
 21 23  1  0  0  0  0
 23 24  1  0  0  0  0
  1 25  1  0  0  0  0
  1 26  1  0  0  0  0
  1 27  1  0  0  0  0
  3 28  1  0  0  0  0
  5 29  1  0  0  0  0
  6 30  1  0  0  0  0
  6 31  1  0  0  0  0
  7 32  1  0  0  0  0
  8 33  1  0  0  0  0
 10 34  1  0  0  0  0
 12 35  1  0  0  0  0
 13 36  1  0  0  0  0
 13 37  1  0  0  0  0
 14 38  1  0  0  0  0
 15 39  1  0  0  0  0
 16 40  1  0  0  0  0
 17 41  1  0  0  0  0
 18 42  1  0  0  0  0
 19 43  1  0  0  0  0
 20 44  1  0  0  0  0
 21 45  1  0  0  0  0
 22 46  1  0  0  0  0
 23 47  1  0  0  0  0
 24 48  1  0  0  0  0
M  END
