 xtb: 6.7.1 (edcfbbe)
          09222613173D

 48 49  0     0  0            999 V2000
    5.0794    2.9385   -0.6737 C   0  0  0  0  0  0  0  0  0  0  0  0
    4.6757    1.6276   -1.0204 O   0  0  0  0  0  0  0  0  0  0  0  0
    3.3194    1.4115   -0.9221 C   0  0  0  0  0  0  0  0  0  0  0  0
    2.9587    1.4187    0.4480 O   0  0  0  0  0  0  0  0  0  0  0  0
    1.5967    1.1761    0.6678 C   0  0  0  0  0  0  0  0  0  0  0  0
    1.3356    1.4062    2.1693 C   0  0  0  0  0  0  0  0  0  0  0  0
   -0.0089    1.6394    2.4783 O   0  0  0  0  0  0  0  0  0  0  0  0
    1.1933   -0.2450    0.2093 C   0  0  0  0  0  0  0  0  0  0  0  0
   -0.2176   -0.3178    0.4002 O   0  0  0  0  0  0  0  0  0  0  0  0
   -0.7975   -1.3839    1.0953 C   0  0  0  0  0  0  0  0  0  0  0  0
   -1.8036   -0.8410    1.9160 O   0  0  0  0  0  0  0  0  0  0  0  0
   -2.8120   -0.1450    1.1930 C   0  0  0  0  0  0  0  0  0  0  0  0
   -3.7799    0.4467    2.2278 C   0  0  0  0  0  0  0  0  0  0  0  0
   -4.7306    1.2918    1.6234 O   0  0  0  0  0  0  0  0  0  0  0  0
   -3.5383   -1.0769    0.2092 C   0  0  0  0  0  0  0  0  0  0  0  0
   -4.4376   -0.3786   -0.6126 O   0  0  0  0  0  0  0  0  0  0  0  0
   -2.5006   -1.7534   -0.6929 C   0  0  0  0  0  0  0  0  0  0  0  0
   -3.0774   -2.7317   -1.5227 O   0  0  0  0  0  0  0  0  0  0  0  0
   -1.4637   -2.4430    0.1940 C   0  0  0  0  0  0  0  0  0  0  0  0
   -0.5151   -3.1437   -0.5635 O   0  0  0  0  0  0  0  0  0  0  0  0
    1.5637   -0.4110   -1.2718 C   0  0  0  0  0  0  0  0  0  0  0  0
    1.5140   -1.7346   -1.7340 O   0  0  0  0  0  0  0  0  0  0  0  0
    3.0050    0.0550   -1.5569 C   0  0  0  0  0  0  0  0  0  0  0  0
    3.1941    0.1629   -2.9400 O   0  0  0  0  0  0  0  0  0  0  0  0
    4.8355    3.1601    0.3683 H   0  0  0  0  0  0  0  0  0  0  0  0
    4.5984    3.6768   -1.3253 H   0  0  0  0  0  0  0  0  0  0  0  0
    6.1566    2.9662   -0.8180 H   0  0  0  0  0  0  0  0  0  0  0  0
    2.7454    2.2016   -1.4524 H   0  0  0  0  0  0  0  0  0  0  0  0
    0.9818    1.8906    0.0941 H   0  0  0  0  0  0  0  0  0  0  0  0
    1.8799    2.3061    2.4642 H   0  0  0  0  0  0  0  0  0  0  0  0
    1.7389    0.5573    2.7377 H   0  0  0  0  0  0  0  0  0  0  0  0
   -0.5229    0.8498    2.2588 H   0  0  0  0  0  0  0  0  0  0  0  0
    1.7101   -1.0018    0.8114 H   0  0  0  0  0  0  0  0  0  0  0  0
   -0.0759   -1.8688    1.7665 H   0  0  0  0  0  0  0  0  0  0  0  0
   -2.3547    0.6713    0.6135 H   0  0  0  0  0  0  0  0  0  0  0  0
   -3.1993    0.9703    2.9941 H   0  0  0  0  0  0  0  0  0  0  0  0
   -4.3430   -0.3577    2.7060 H   0  0  0  0  0  0  0  0  0  0  0  0
   -4.2975    2.1102    1.3531 H   0  0  0  0  0  0  0  0  0  0  0  0
   -4.0663   -1.8601    0.7802 H   0  0  0  0  0  0  0  0  0  0  0  0
   -4.9754    0.1953   -0.0436 H   0  0  0  0  0  0  0  0  0  0  0  0
   -2.0054   -0.9819   -1.3033 H   0  0  0  0  0  0  0  0  0  0  0  0
   -3.8578   -2.3360   -1.9291 H   0  0  0  0  0  0  0  0  0  0  0  0
   -1.9873   -3.1418    0.8658 H   0  0  0  0  0  0  0  0  0  0  0  0
   -1.0053   -3.6180   -1.2511 H   0  0  0  0  0  0  0  0  0  0  0  0
    0.8717    0.2212   -1.8565 H   0  0  0  0  0  0  0  0  0  0  0  0
    0.7621   -2.2045   -1.3285 H   0  0  0  0  0  0  0  0  0  0  0  0
    3.6977   -0.6813   -1.1234 H   0  0  0  0  0  0  0  0  0  0  0  0
    2.9600   -0.6940   -3.3201 H   0  0  0  0  0  0  0  0  0  0  0  0
  1  2  1  0  0  0  0
  2  3  1  0  0  0  0
  3  4  1  0  0  0  0
  4  5  1  0  0  0  0
  5  6  1  0  0  0  0
  6  7  1  0  0  0  0
  5  8  1  0  0  0  0
  8  9  1  0  0  0  0
  9 10  1  0  0  0  0
 10 11  1  0  0  0  0
 11 12  1  0  0  0  0
 12 13  1  0  0  0  0
 13 14  1  0  0  0  0
 12 15  1  0  0  0  0
 15 16  1  0  0  0  0
 15 17  1  0  0  0  0
 17 18  1  0  0  0  0
 10 19  1  0  0  0  0
 17 19  1  0  0  0  0
 19 20  1  0  0  0  0
  8 21  1  0  0  0  0
 21 22  1  0  0  0  0
  3 23  1  0  0  0  0
 21 23  1  0  0  0  0
 23 24  1  0  0  0  0
  1 25  1  0  0  0  0
  1 26  1  0  0  0  0
  1 27  1  0  0  0  0
  3 28  1  0  0  0  0
  5 29  1  0  0  0  0
  6 30  1  0  0  0  0
  6 31  1  0  0  0  0
  7 32  1  0  0  0  0
  8 33  1  0  0  0  0
 10 34  1  0  0  0  0
 12 35  1  0  0  0  0
 13 36  1  0  0  0  0
 13 37  1  0  0  0  0
 14 38  1  0  0  0  0
 15 39  1  0  0  0  0
 16 40  1  0  0  0  0
 17 41  1  0  0  0  0
 18 42  1  0  0  0  0
 19 43  1  0  0  0  0
 20 44  1  0  0  0  0
 21 45  1  0  0  0  0
 22 46  1  0  0  0  0
 23 47  1  0  0  0  0
 24 48  1  0  0  0  0
M  END
