 xtb: 6.7.1 (edcfbbe)
          09222613003D

 48 49  0     0  0            999 V2000
    5.6521   -1.3680   -0.1067 C   0  0  0  0  0  0  0  0  0  0  0  0
    4.9567   -0.2567    0.4436 O   0  0  0  0  0  0  0  0  0  0  0  0
    3.6102   -0.4641    0.6527 C   0  0  0  0  0  0  0  0  0  0  0  0
    2.9473   -0.4423   -0.5972 O   0  0  0  0  0  0  0  0  0  0  0  0
    1.5460   -0.5982   -0.5178 C   0  0  0  0  0  0  0  0  0  0  0  0
    1.0314   -0.6362   -1.9644 C   0  0  0  0  0  0  0  0  0  0  0  0
    1.4352   -1.7934   -2.6397 O   0  0  0  0  0  0  0  0  0  0  0  0
    0.8962    0.5489    0.2840 C   0  0  0  0  0  0  0  0  0  0  0  0
   -0.4899    0.2824    0.4061 O   0  0  0  0  0  0  0  0  0  0  0  0
   -1.4063    1.2874    0.0624 C   0  0  0  0  0  0  0  0  0  0  0  0
   -2.0899    0.9495   -1.1145 O   0  0  0  0  0  0  0  0  0  0  0  0
   -2.8379   -0.2638   -1.0232 C   0  0  0  0  0  0  0  0  0  0  0  0
   -3.5538   -0.4466   -2.3680 C   0  0  0  0  0  0  0  0  0  0  0  0
   -2.6635   -0.6666   -3.4275 O   0  0  0  0  0  0  0  0  0  0  0  0
   -3.8492   -0.2302    0.1345 C   0  0  0  0  0  0  0  0  0  0  0  0
   -4.5184   -1.4542    0.2901 O   0  0  0  0  0  0  0  0  0  0  0  0
   -3.1507    0.1863    1.4387 C   0  0  0  0  0  0  0  0  0  0  0  0
   -4.0755    0.3678    2.4837 O   0  0  0  0  0  0  0  0  0  0  0  0
   -2.4219    1.5091    1.1973 C   0  0  0  0  0  0  0  0  0  0  0  0
   -1.7616    1.9931    2.3276 O   0  0  0  0  0  0  0  0  0  0  0  0
    1.5513    0.5940    1.6761 C   0  0  0  0  0  0  0  0  0  0  0  0
    1.1060    1.6336    2.5035 O   0  0  0  0  0  0  0  0  0  0  0  0
    3.0867    0.6552    1.5591 C   0  0  0  0  0  0  0  0  0  0  0  0
    3.6672    0.5083    2.8259 O   0  0  0  0  0  0  0  0  0  0  0  0
    5.2933   -1.5930   -1.1128 H   0  0  0  0  0  0  0  0  0  0  0  0
    5.5338   -2.2485    0.5325 H   0  0  0  0  0  0  0  0  0  0  0  0
    6.6967   -1.0704   -0.1406 H   0  0  0  0  0  0  0  0  0  0  0  0
    3.4254   -1.4411    1.1487 H   0  0  0  0  0  0  0  0  0  0  0  0
    1.3004   -1.5482   -0.0174 H   0  0  0  0  0  0  0  0  0  0  0  0
    1.3886    0.2655   -2.4791 H   0  0  0  0  0  0  0  0  0  0  0  0
   -0.0588   -0.6447   -1.9631 H   0  0  0  0  0  0  0  0  0  0  0  0
    2.4008   -1.8147   -2.6544 H   0  0  0  0  0  0  0  0  0  0  0  0
    1.0652    1.4987   -0.2410 H   0  0  0  0  0  0  0  0  0  0  0  0
   -0.8965    2.2331   -0.1599 H   0  0  0  0  0  0  0  0  0  0  0  0
   -2.1389   -1.0989   -0.8620 H   0  0  0  0  0  0  0  0  0  0  0  0
   -4.1733    0.4402   -2.5524 H   0  0  0  0  0  0  0  0  0  0  0  0
   -4.1962   -1.3275   -2.3118 H   0  0  0  0  0  0  0  0  0  0  0  0
   -2.1016    0.1136   -3.5174 H   0  0  0  0  0  0  0  0  0  0  0  0
   -4.6337    0.5033   -0.0878 H   0  0  0  0  0  0  0  0  0  0  0  0
   -3.8740   -2.1667    0.4046 H   0  0  0  0  0  0  0  0  0  0  0  0
   -2.4045   -0.5750    1.7199 H   0  0  0  0  0  0  0  0  0  0  0  0
   -4.7358   -0.3376    2.4300 H   0  0  0  0  0  0  0  0  0  0  0  0
   -3.1573    2.2505    0.8383 H   0  0  0  0  0  0  0  0  0  0  0  0
   -2.3367    1.8510    3.0929 H   0  0  0  0  0  0  0  0  0  0  0  0
    1.2802   -0.3257    2.2089 H   0  0  0  0  0  0  0  0  0  0  0  0
    1.1092    2.4748    2.0296 H   0  0  0  0  0  0  0  0  0  0  0  0
    3.3897    1.6132    1.1047 H   0  0  0  0  0  0  0  0  0  0  0  0
    3.1568    1.0526    3.4468 H   0  0  0  0  0  0  0  0  0  0  0  0
  1  2  1  0  0  0  0
  2  3  1  0  0  0  0
  3  4  1  0  0  0  0
  4  5  1  0  0  0  0
  5  6  1  0  0  0  0
  6  7  1  0  0  0  0
  5  8  1  0  0  0  0
  8  9  1  0  0  0  0
  9 10  1  0  0  0  0
 10 11  1  0  0  0  0
 11 12  1  0  0  0  0
 12 13  1  0  0  0  0
 13 14  1  0  0  0  0
 12 15  1  0  0  0  0
 15 16  1  0  0  0  0
 15 17  1  0  0  0  0
 17 18  1  0  0  0  0
 10 19  1  0  0  0  0
 17 19  1  0  0  0  0
 19 20  1  0  0  0  0
  8 21  1  0  0  0  0
 21 22  1  0  0  0  0
  3 23  1  0  0  0  0
 21 23  1  0  0  0  0
 23 24  1  0  0  0  0
  1 25  1  0  0  0  0
  1 26  1  0  0  0  0
  1 27  1  0  0  0  0
  3 28  1  0  0  0  0
  5 29  1  0  0  0  0
  6 30  1  0  0  0  0
  6 31  1  0  0  0  0
  7 32  1  0  0  0  0
  8 33  1  0  0  0  0
 10 34  1  0  0  0  0
 12 35  1  0  0  0  0
 13 36  1  0  0  0  0
 13 37  1  0  0  0  0
 14 38  1  0  0  0  0
 15 39  1  0  0  0  0
 16 40  1  0  0  0  0
 17 41  1  0  0  0  0
 18 42  1  0  0  0  0
 19 43  1  0  0  0  0
 20 44  1  0  0  0  0
 21 45  1  0  0  0  0
 22 46  1  0  0  0  0
 23 47  1  0  0  0  0
 24 48  1  0  0  0  0
M  END
