 xtb: 6.7.1 (edcfbbe)
          09222613123D

 48 49  0     0  0            999 V2000
    5.7498   -0.7486    0.0553 C   0  0  0  0  0  0  0  0  0  0  0  0
    4.9310    0.3383    0.4684 O   0  0  0  0  0  0  0  0  0  0  0  0
    3.6595   -0.0148    0.8660 C   0  0  0  0  0  0  0  0  0  0  0  0
    2.8834   -0.2842   -0.2854 O   0  0  0  0  0  0  0  0  0  0  0  0
    1.5532   -0.6682    0.0031 C   0  0  0  0  0  0  0  0  0  0  0  0
    0.9310   -1.1139   -1.3247 C   0  0  0  0  0  0  0  0  0  0  0  0
    1.7322   -2.0438   -1.9961 O   0  0  0  0  0  0  0  0  0  0  0  0
    0.8050    0.5013    0.6682 C   0  0  0  0  0  0  0  0  0  0  0  0
   -0.5234    0.1285    1.0174 O   0  0  0  0  0  0  0  0  0  0  0  0
   -1.5292    1.0248    0.6287 C   0  0  0  0  0  0  0  0  0  0  0  0
   -1.7578    1.0686   -0.7518 O   0  0  0  0  0  0  0  0  0  0  0  0
   -2.4492   -0.0325   -1.3337 C   0  0  0  0  0  0  0  0  0  0  0  0
   -2.7437    0.3726   -2.7890 C   0  0  0  0  0  0  0  0  0  0  0  0
   -3.3140   -0.6777   -3.5281 O   0  0  0  0  0  0  0  0  0  0  0  0
   -3.7423   -0.3944   -0.5868 C   0  0  0  0  0  0  0  0  0  0  0  0
   -4.2996   -1.5883   -1.0742 O   0  0  0  0  0  0  0  0  0  0  0  0
   -3.4230   -0.5934    0.8980 C   0  0  0  0  0  0  0  0  0  0  0  0
   -4.5786   -0.8627    1.6518 O   0  0  0  0  0  0  0  0  0  0  0  0
   -2.8063    0.7028    1.4233 C   0  0  0  0  0  0  0  0  0  0  0  0
   -2.4994    0.6419    2.7843 O   0  0  0  0  0  0  0  0  0  0  0  0
    1.5629    0.9531    1.9295 C   0  0  0  0  0  0  0  0  0  0  0  0
    1.0257    2.1214    2.4970 O   0  0  0  0  0  0  0  0  0  0  0  0
    3.0645    1.1564    1.6565 C   0  0  0  0  0  0  0  0  0  0  0  0
    3.7711    1.2663    2.8619 O   0  0  0  0  0  0  0  0  0  0  0  0
    5.3299   -1.2443   -0.8222 H   0  0  0  0  0  0  0  0  0  0  0  0
    5.8622   -1.4727    0.8679 H   0  0  0  0  0  0  0  0  0  0  0  0
    6.7137   -0.3103   -0.1888 H   0  0  0  0  0  0  0  0  0  0  0  0
    3.6731   -0.9140    1.5170 H   0  0  0  0  0  0  0  0  0  0  0  0
    1.5643   -1.5193    0.7038 H   0  0  0  0  0  0  0  0  0  0  0  0
    0.7484   -0.2290   -1.9497 H   0  0  0  0  0  0  0  0  0  0  0  0
   -0.0101   -1.6207   -1.1130 H   0  0  0  0  0  0  0  0  0  0  0  0
    2.6209   -1.6701   -2.0680 H   0  0  0  0  0  0  0  0  0  0  0  0
    0.7719    1.3315   -0.0531 H   0  0  0  0  0  0  0  0  0  0  0  0
   -1.2224    2.0520    0.8808 H   0  0  0  0  0  0  0  0  0  0  0  0
   -1.8135   -0.9288   -1.3203 H   0  0  0  0  0  0  0  0  0  0  0  0
   -1.8186    0.7387   -3.2438 H   0  0  0  0  0  0  0  0  0  0  0  0
   -3.4724    1.1867   -2.7890 H   0  0  0  0  0  0  0  0  0  0  0  0
   -2.6293   -1.3126   -3.7762 H   0  0  0  0  0  0  0  0  0  0  0  0
   -4.4656    0.4334   -0.6782 H   0  0  0  0  0  0  0  0  0  0  0  0
   -4.3858   -1.5097   -2.0403 H   0  0  0  0  0  0  0  0  0  0  0  0
   -2.6944   -1.4115    1.0082 H   0  0  0  0  0  0  0  0  0  0  0  0
   -5.0625   -1.5718    1.2063 H   0  0  0  0  0  0  0  0  0  0  0  0
   -3.5249    1.5197    1.2330 H   0  0  0  0  0  0  0  0  0  0  0  0
   -3.2426    0.2046    3.2264 H   0  0  0  0  0  0  0  0  0  0  0  0
    1.4349    0.1819    2.6972 H   0  0  0  0  0  0  0  0  0  0  0  0
    1.1106    2.8569    1.8737 H   0  0  0  0  0  0  0  0  0  0  0  0
    3.2069    2.0609    1.0409 H   0  0  0  0  0  0  0  0  0  0  0  0
    3.3025    1.8952    3.4314 H   0  0  0  0  0  0  0  0  0  0  0  0
  1  2  1  0  0  0  0
  2  3  1  0  0  0  0
  3  4  1  0  0  0  0
  4  5  1  0  0  0  0
  5  6  1  0  0  0  0
  6  7  1  0  0  0  0
  5  8  1  0  0  0  0
  8  9  1  0  0  0  0
  9 10  1  0  0  0  0
 10 11  1  0  0  0  0
 11 12  1  0  0  0  0
 12 13  1  0  0  0  0
 13 14  1  0  0  0  0
 12 15  1  0  0  0  0
 15 16  1  0  0  0  0
 15 17  1  0  0  0  0
 17 18  1  0  0  0  0
 10 19  1  0  0  0  0
 17 19  1  0  0  0  0
 19 20  1  0  0  0  0
  8 21  1  0  0  0  0
 21 22  1  0  0  0  0
  3 23  1  0  0  0  0
 21 23  1  0  0  0  0
 23 24  1  0  0  0  0
  1 25  1  0  0  0  0
  1 26  1  0  0  0  0
  1 27  1  0  0  0  0
  3 28  1  0  0  0  0
  5 29  1  0  0  0  0
  6 30  1  0  0  0  0
  6 31  1  0  0  0  0
  7 32  1  0  0  0  0
  8 33  1  0  0  0  0
 10 34  1  0  0  0  0
 12 35  1  0  0  0  0
 13 36  1  0  0  0  0
 13 37  1  0  0  0  0
 14 38  1  0  0  0  0
 15 39  1  0  0  0  0
 16 40  1  0  0  0  0
 17 41  1  0  0  0  0
 18 42  1  0  0  0  0
 19 43  1  0  0  0  0
 20 44  1  0  0  0  0
 21 45  1  0  0  0  0
 22 46  1  0  0  0  0
 23 47  1  0  0  0  0
 24 48  1  0  0  0  0
M  END
