 xtb: 6.7.1 (edcfbbe)
          09212615493D

 48 49  0     0  0            999 V2000
    6.0059   -0.1155    0.1662 C   0  0  0  0  0  0  0  0  0  0  0  0
    4.9314    0.6169   -0.4140 O   0  0  0  0  0  0  0  0  0  0  0  0
    3.7583    0.6016    0.3151 C   0  0  0  0  0  0  0  0  0  0  0  0
    3.1727   -0.6775    0.1993 O   0  0  0  0  0  0  0  0  0  0  0  0
    1.9615   -0.8483    0.9203 C   0  0  0  0  0  0  0  0  0  0  0  0
    1.5538   -2.3073    0.6984 C   0  0  0  0  0  0  0  0  0  0  0  0
    2.4494   -3.2019    1.3049 O   0  0  0  0  0  0  0  0  0  0  0  0
    0.8904    0.1468    0.4389 C   0  0  0  0  0  0  0  0  0  0  0  0
   -0.2198    0.1599    1.3345 O   0  0  0  0  0  0  0  0  0  0  0  0
   -1.5261    0.0554    0.8353 C   0  0  0  0  0  0  0  0  0  0  0  0
   -1.5532    0.1705   -0.5617 O   0  0  0  0  0  0  0  0  0  0  0  0
   -2.8459    0.4571   -1.0837 C   0  0  0  0  0  0  0  0  0  0  0  0
   -3.1215    1.9735   -1.1492 C   0  0  0  0  0  0  0  0  0  0  0  0
   -4.3471    2.2249   -1.7939 O   0  0  0  0  0  0  0  0  0  0  0  0
   -3.9627   -0.2617   -0.3015 C   0  0  0  0  0  0  0  0  0  0  0  0
   -5.0351   -0.6124   -1.1384 O   0  0  0  0  0  0  0  0  0  0  0  0
   -3.3910   -1.5501    0.3004 C   0  0  0  0  0  0  0  0  0  0  0  0
   -4.3758   -2.2923    0.9703 O   0  0  0  0  0  0  0  0  0  0  0  0
   -2.2812   -1.2181    1.3143 C   0  0  0  0  0  0  0  0  0  0  0  0
   -1.4106   -2.3028    1.4734 O   0  0  0  0  0  0  0  0  0  0  0  0
    1.4396    1.5844    0.3838 C   0  0  0  0  0  0  0  0  0  0  0  0
    0.5480    2.4578   -0.2665 O   0  0  0  0  0  0  0  0  0  0  0  0
    2.8288    1.6706   -0.2666 C   0  0  0  0  0  0  0  0  0  0  0  0
    3.4070    2.9264   -0.0314 O   0  0  0  0  0  0  0  0  0  0  0  0
    5.7691   -1.1796    0.2072 H   0  0  0  0  0  0  0  0  0  0  0  0
    6.2198    0.2560    1.1721 H   0  0  0  0  0  0  0  0  0  0  0  0
    6.8561    0.0567   -0.4873 H   0  0  0  0  0  0  0  0  0  0  0  0
    3.9478    0.8279    1.3847 H   0  0  0  0  0  0  0  0  0  0  0  0
    2.1396   -0.6741    1.9927 H   0  0  0  0  0  0  0  0  0  0  0  0
    1.4974   -2.4883   -0.3821 H   0  0  0  0  0  0  0  0  0  0  0  0
    0.5805   -2.4790    1.1528 H   0  0  0  0  0  0  0  0  0  0  0  0
    3.3296   -3.0523    0.9319 H   0  0  0  0  0  0  0  0  0  0  0  0
    0.5608   -0.1563   -0.5602 H   0  0  0  0  0  0  0  0  0  0  0  0
   -2.0631    0.9175    1.2744 H   0  0  0  0  0  0  0  0  0  0  0  0
   -2.8269    0.0447   -2.0998 H   0  0  0  0  0  0  0  0  0  0  0  0
   -2.2861    2.4785   -1.6401 H   0  0  0  0  0  0  0  0  0  0  0  0
   -3.2124    2.3762   -0.1370 H   0  0  0  0  0  0  0  0  0  0  0  0
   -4.2167    2.2256   -2.7525 H   0  0  0  0  0  0  0  0  0  0  0  0
   -4.3210    0.3746    0.5213 H   0  0  0  0  0  0  0  0  0  0  0  0
   -5.4644    0.2014   -1.4468 H   0  0  0  0  0  0  0  0  0  0  0  0
   -2.9498   -2.1471   -0.5138 H   0  0  0  0  0  0  0  0  0  0  0  0
   -5.1473   -2.3679    0.3866 H   0  0  0  0  0  0  0  0  0  0  0  0
   -2.7575   -0.9784    2.2759 H   0  0  0  0  0  0  0  0  0  0  0  0
   -1.9236   -3.0566    1.8048 H   0  0  0  0  0  0  0  0  0  0  0  0
    1.5107    1.9574    1.4120 H   0  0  0  0  0  0  0  0  0  0  0  0
    0.3718    2.1174   -1.1562 H   0  0  0  0  0  0  0  0  0  0  0  0
    2.7528    1.4767   -1.3483 H   0  0  0  0  0  0  0  0  0  0  0  0
    2.7562    3.6112   -0.2571 H   0  0  0  0  0  0  0  0  0  0  0  0
  1  2  1  0  0  0  0
  2  3  1  0  0  0  0
  3  4  1  0  0  0  0
  4  5  1  0  0  0  0
  5  6  1  0  0  0  0
  6  7  1  0  0  0  0
  5  8  1  0  0  0  0
  8  9  1  0  0  0  0
  9 10  1  0  0  0  0
 10 11  1  0  0  0  0
 11 12  1  0  0  0  0
 12 13  1  0  0  0  0
 13 14  1  0  0  0  0
 12 15  1  0  0  0  0
 15 16  1  0  0  0  0
 15 17  1  0  0  0  0
 17 18  1  0  0  0  0
 10 19  1  0  0  0  0
 17 19  1  0  0  0  0
 19 20  1  0  0  0  0
  8 21  1  0  0  0  0
 21 22  1  0  0  0  0
  3 23  1  0  0  0  0
 21 23  1  0  0  0  0
 23 24  1  0  0  0  0
  1 25  1  0  0  0  0
  1 26  1  0  0  0  0
  1 27  1  0  0  0  0
  3 28  1  0  0  0  0
  5 29  1  0  0  0  0
  6 30  1  0  0  0  0
  6 31  1  0  0  0  0
  7 32  1  0  0  0  0
  8 33  1  0  0  0  0
 10 34  1  0  0  0  0
 12 35  1  0  0  0  0
 13 36  1  0  0  0  0
 13 37  1  0  0  0  0
 14 38  1  0  0  0  0
 15 39  1  0  0  0  0
 16 40  1  0  0  0  0
 17 41  1  0  0  0  0
 18 42  1  0  0  0  0
 19 43  1  0  0  0  0
 20 44  1  0  0  0  0
 21 45  1  0  0  0  0
 22 46  1  0  0  0  0
 23 47  1  0  0  0  0
 24 48  1  0  0  0  0
M  END
