 xtb: 6.7.1 (edcfbbe)
          09222613203D

 48 49  0     0  0            999 V2000
    5.4270   -1.3718   -1.3126 C   0  0  0  0  0  0  0  0  0  0  0  0
    4.6212   -1.0382   -0.1981 O   0  0  0  0  0  0  0  0  0  0  0  0
    3.2671   -1.0640   -0.4511 C   0  0  0  0  0  0  0  0  0  0  0  0
    2.9380    0.0465   -1.2573 O   0  0  0  0  0  0  0  0  0  0  0  0
    1.5685    0.1370   -1.5734 C   0  0  0  0  0  0  0  0  0  0  0  0
    1.4421    1.3313   -2.5303 C   0  0  0  0  0  0  0  0  0  0  0  0
    1.9425    2.5040   -1.9565 O   0  0  0  0  0  0  0  0  0  0  0  0
    0.6718    0.3291   -0.3257 C   0  0  0  0  0  0  0  0  0  0  0  0
   -0.6490    0.1684   -0.8281 O   0  0  0  0  0  0  0  0  0  0  0  0
   -1.7209    1.0575   -0.6105 C   0  0  0  0  0  0  0  0  0  0  0  0
   -2.8886    0.2932   -0.6663 O   0  0  0  0  0  0  0  0  0  0  0  0
   -3.0900   -0.5881    0.4321 C   0  0  0  0  0  0  0  0  0  0  0  0
   -4.2752   -1.4812    0.0546 C   0  0  0  0  0  0  0  0  0  0  0  0
   -3.9552   -2.3352   -1.0060 O   0  0  0  0  0  0  0  0  0  0  0  0
   -3.3490    0.2337    1.6991 C   0  0  0  0  0  0  0  0  0  0  0  0
   -3.5886   -0.5569    2.8367 O   0  0  0  0  0  0  0  0  0  0  0  0
   -2.1362    1.1421    1.9254 C   0  0  0  0  0  0  0  0  0  0  0  0
   -2.3762    2.0837    2.9543 O   0  0  0  0  0  0  0  0  0  0  0  0
   -1.7863    1.9383    0.6607 C   0  0  0  0  0  0  0  0  0  0  0  0
   -0.6132    2.6834    0.8538 O   0  0  0  0  0  0  0  0  0  0  0  0
    1.0144   -0.7577    0.7091 C   0  0  0  0  0  0  0  0  0  0  0  0
    0.4738   -0.5115    1.9915 O   0  0  0  0  0  0  0  0  0  0  0  0
    2.5298   -0.9694    0.8857 C   0  0  0  0  0  0  0  0  0  0  0  0
    2.7587   -2.1493    1.6054 O   0  0  0  0  0  0  0  0  0  0  0  0
    5.2821   -0.6600   -2.1294 H   0  0  0  0  0  0  0  0  0  0  0  0
    5.1987   -2.3831   -1.6663 H   0  0  0  0  0  0  0  0  0  0  0  0
    6.4544   -1.3281   -0.9598 H   0  0  0  0  0  0  0  0  0  0  0  0
    2.9677   -1.9986   -0.9696 H   0  0  0  0  0  0  0  0  0  0  0  0
    1.2311   -0.7809   -2.0794 H   0  0  0  0  0  0  0  0  0  0  0  0
    0.3918    1.5069   -2.7640 H   0  0  0  0  0  0  0  0  0  0  0  0
    1.9834    1.0897   -3.4564 H   0  0  0  0  0  0  0  0  0  0  0  0
    2.8198    2.2971   -1.6092 H   0  0  0  0  0  0  0  0  0  0  0  0
    0.8238    1.3301    0.0865 H   0  0  0  0  0  0  0  0  0  0  0  0
   -1.7829    1.7347   -1.4777 H   0  0  0  0  0  0  0  0  0  0  0  0
   -2.1932   -1.2106    0.5718 H   0  0  0  0  0  0  0  0  0  0  0  0
   -5.1252   -0.8343   -0.2023 H   0  0  0  0  0  0  0  0  0  0  0  0
   -4.5484   -2.1124    0.9025 H   0  0  0  0  0  0  0  0  0  0  0  0
   -3.5889   -1.7885   -1.7123 H   0  0  0  0  0  0  0  0  0  0  0  0
   -4.2508    0.8415    1.5647 H   0  0  0  0  0  0  0  0  0  0  0  0
   -2.8551   -1.1764    2.9434 H   0  0  0  0  0  0  0  0  0  0  0  0
   -1.2884    0.5034    2.2067 H   0  0  0  0  0  0  0  0  0  0  0  0
   -2.9007    1.6410    3.6330 H   0  0  0  0  0  0  0  0  0  0  0  0
   -2.6336    2.6206    0.4745 H   0  0  0  0  0  0  0  0  0  0  0  0
   -0.7569    3.2271    1.6399 H   0  0  0  0  0  0  0  0  0  0  0  0
    0.5613   -1.7000    0.3794 H   0  0  0  0  0  0  0  0  0  0  0  0
    0.8651    0.3068    2.3280 H   0  0  0  0  0  0  0  0  0  0  0  0
    2.9547   -0.1007    1.4190 H   0  0  0  0  0  0  0  0  0  0  0  0
    2.1636   -2.1503    2.3678 H   0  0  0  0  0  0  0  0  0  0  0  0
  1  2  1  0  0  0  0
  2  3  1  0  0  0  0
  3  4  1  0  0  0  0
  4  5  1  0  0  0  0
  5  6  1  0  0  0  0
  6  7  1  0  0  0  0
  5  8  1  0  0  0  0
  8  9  1  0  0  0  0
  9 10  1  0  0  0  0
 10 11  1  0  0  0  0
 11 12  1  0  0  0  0
 12 13  1  0  0  0  0
 13 14  1  0  0  0  0
 12 15  1  0  0  0  0
 15 16  1  0  0  0  0
 15 17  1  0  0  0  0
 17 18  1  0  0  0  0
 10 19  1  0  0  0  0
 17 19  1  0  0  0  0
 19 20  1  0  0  0  0
  8 21  1  0  0  0  0
 21 22  1  0  0  0  0
  3 23  1  0  0  0  0
 21 23  1  0  0  0  0
 23 24  1  0  0  0  0
  1 25  1  0  0  0  0
  1 26  1  0  0  0  0
  1 27  1  0  0  0  0
  3 28  1  0  0  0  0
  5 29  1  0  0  0  0
  6 30  1  0  0  0  0
  6 31  1  0  0  0  0
  7 32  1  0  0  0  0
  8 33  1  0  0  0  0
 10 34  1  0  0  0  0
 12 35  1  0  0  0  0
 13 36  1  0  0  0  0
 13 37  1  0  0  0  0
 14 38  1  0  0  0  0
 15 39  1  0  0  0  0
 16 40  1  0  0  0  0
 17 41  1  0  0  0  0
 18 42  1  0  0  0  0
 19 43  1  0  0  0  0
 20 44  1  0  0  0  0
 21 45  1  0  0  0  0
 22 46  1  0  0  0  0
 23 47  1  0  0  0  0
 24 48  1  0  0  0  0
M  END
