 xtb: 6.7.1 (edcfbbe)
          09212615473D

 48 49  0     0  0            999 V2000
    5.5625    1.7138   -0.8403 C   0  0  0  0  0  0  0  0  0  0  0  0
    4.7993    0.7029   -0.1897 O   0  0  0  0  0  0  0  0  0  0  0  0
    3.5675    0.4490   -0.7598 C   0  0  0  0  0  0  0  0  0  0  0  0
    2.7076    1.5351   -0.4821 O   0  0  0  0  0  0  0  0  0  0  0  0
    1.4053    1.3739   -1.0146 C   0  0  0  0  0  0  0  0  0  0  0  0
    0.6566    2.6907   -0.7880 C   0  0  0  0  0  0  0  0  0  0  0  0
    1.2039    3.7349   -1.5479 O   0  0  0  0  0  0  0  0  0  0  0  0
    0.7124    0.1600   -0.3716 C   0  0  0  0  0  0  0  0  0  0  0  0
   -0.5477   -0.0368   -1.0047 O   0  0  0  0  0  0  0  0  0  0  0  0
   -1.6905   -0.2250   -0.2246 C   0  0  0  0  0  0  0  0  0  0  0  0
   -1.3820   -0.8764    0.9872 O   0  0  0  0  0  0  0  0  0  0  0  0
   -2.5021   -1.5745    1.5276 C   0  0  0  0  0  0  0  0  0  0  0  0
   -2.5025   -3.0407    1.0508 C   0  0  0  0  0  0  0  0  0  0  0  0
   -1.3136   -3.7097    1.3773 O   0  0  0  0  0  0  0  0  0  0  0  0
   -3.8483   -0.9025    1.1819 C   0  0  0  0  0  0  0  0  0  0  0  0
   -4.8299   -1.1896    2.1431 O   0  0  0  0  0  0  0  0  0  0  0  0
   -3.7357    0.6247    0.9467 C   0  0  0  0  0  0  0  0  0  0  0  0
   -4.8322    1.0729    0.1898 O   0  0  0  0  0  0  0  0  0  0  0  0
   -2.4434    1.0535    0.2036 C   0  0  0  0  0  0  0  0  0  0  0  0
   -1.6385    1.8582    1.0243 O   0  0  0  0  0  0  0  0  0  0  0  0
    1.5670   -1.1083   -0.5197 C   0  0  0  0  0  0  0  0  0  0  0  0
    1.0617   -2.1772    0.2456 O   0  0  0  0  0  0  0  0  0  0  0  0
    3.0382   -0.8528   -0.1447 C   0  0  0  0  0  0  0  0  0  0  0  0
    3.8557   -1.8949   -0.6051 O   0  0  0  0  0  0  0  0  0  0  0  0
    5.0616    2.6801   -0.7677 H   0  0  0  0  0  0  0  0  0  0  0  0
    5.7198    1.4546   -1.8908 H   0  0  0  0  0  0  0  0  0  0  0  0
    6.5116    1.7407   -0.3132 H   0  0  0  0  0  0  0  0  0  0  0  0
    3.6530    0.3187   -1.8586 H   0  0  0  0  0  0  0  0  0  0  0  0
    1.4734    1.1919   -2.0998 H   0  0  0  0  0  0  0  0  0  0  0  0
    0.6673    2.9335    0.2797 H   0  0  0  0  0  0  0  0  0  0  0  0
   -0.3747    2.5754   -1.1192 H   0  0  0  0  0  0  0  0  0  0  0  0
    2.1222    3.8645   -1.2721 H   0  0  0  0  0  0  0  0  0  0  0  0
    0.5722    0.3688    0.6942 H   0  0  0  0  0  0  0  0  0  0  0  0
   -2.3446   -0.8330   -0.8636 H   0  0  0  0  0  0  0  0  0  0  0  0
   -2.3358   -1.5627    2.6104 H   0  0  0  0  0  0  0  0  0  0  0  0
   -2.6786   -3.0702   -0.0322 H   0  0  0  0  0  0  0  0  0  0  0  0
   -3.3121   -3.5714    1.5556 H   0  0  0  0  0  0  0  0  0  0  0  0
   -0.5848   -3.3291    0.8584 H   0  0  0  0  0  0  0  0  0  0  0  0
   -4.2415   -1.3410    0.2569 H   0  0  0  0  0  0  0  0  0  0  0  0
   -4.5560   -0.8667    3.0152 H   0  0  0  0  0  0  0  0  0  0  0  0
   -3.7293    1.1347    1.9244 H   0  0  0  0  0  0  0  0  0  0  0  0
   -5.6542    0.7926    0.6218 H   0  0  0  0  0  0  0  0  0  0  0  0
   -2.7217    1.6603   -0.6599 H   0  0  0  0  0  0  0  0  0  0  0  0
   -1.3167    1.3131    1.7603 H   0  0  0  0  0  0  0  0  0  0  0  0
    1.5157   -1.4433   -1.5614 H   0  0  0  0  0  0  0  0  0  0  0  0
    1.0426   -1.9126    1.1791 H   0  0  0  0  0  0  0  0  0  0  0  0
    3.1283   -0.7429    0.9477 H   0  0  0  0  0  0  0  0  0  0  0  0
    3.5113   -2.7372   -0.2666 H   0  0  0  0  0  0  0  0  0  0  0  0
  1  2  1  0  0  0  0
  2  3  1  0  0  0  0
  3  4  1  0  0  0  0
  4  5  1  0  0  0  0
  5  6  1  0  0  0  0
  6  7  1  0  0  0  0
  5  8  1  0  0  0  0
  8  9  1  0  0  0  0
  9 10  1  0  0  0  0
 10 11  1  0  0  0  0
 11 12  1  0  0  0  0
 12 13  1  0  0  0  0
 13 14  1  0  0  0  0
 12 15  1  0  0  0  0
 15 16  1  0  0  0  0
 15 17  1  0  0  0  0
 17 18  1  0  0  0  0
 10 19  1  0  0  0  0
 17 19  1  0  0  0  0
 19 20  1  0  0  0  0
  8 21  1  0  0  0  0
 21 22  1  0  0  0  0
  3 23  1  0  0  0  0
 21 23  1  0  0  0  0
 23 24  1  0  0  0  0
  1 25  1  0  0  0  0
  1 26  1  0  0  0  0
  1 27  1  0  0  0  0
  3 28  1  0  0  0  0
  5 29  1  0  0  0  0
  6 30  1  0  0  0  0
  6 31  1  0  0  0  0
  7 32  1  0  0  0  0
  8 33  1  0  0  0  0
 10 34  1  0  0  0  0
 12 35  1  0  0  0  0
 13 36  1  0  0  0  0
 13 37  1  0  0  0  0
 14 38  1  0  0  0  0
 15 39  1  0  0  0  0
 16 40  1  0  0  0  0
 17 41  1  0  0  0  0
 18 42  1  0  0  0  0
 19 43  1  0  0  0  0
 20 44  1  0  0  0  0
 21 45  1  0  0  0  0
 22 46  1  0  0  0  0
 23 47  1  0  0  0  0
 24 48  1  0  0  0  0
M  END
