 xtb: 6.7.1 (edcfbbe)
          09212615473D

 48 49  0     0  0            999 V2000
    5.6618    1.1488   -1.3673 C   0  0  0  0  0  0  0  0  0  0  0  0
    4.8434    0.3610   -0.5086 O   0  0  0  0  0  0  0  0  0  0  0  0
    3.5798    0.0916   -0.9948 C   0  0  0  0  0  0  0  0  0  0  0  0
    2.7941    1.2629   -0.8864 O   0  0  0  0  0  0  0  0  0  0  0  0
    1.4556    1.0934   -1.3167 C   0  0  0  0  0  0  0  0  0  0  0  0
    0.7799    2.4687   -1.2542 C   0  0  0  0  0  0  0  0  0  0  0  0
    1.3902    3.3989   -2.1068 O   0  0  0  0  0  0  0  0  0  0  0  0
    0.7368    0.0628   -0.4294 C   0  0  0  0  0  0  0  0  0  0  0  0
   -0.5860   -0.1391   -0.9241 O   0  0  0  0  0  0  0  0  0  0  0  0
   -1.6650   -0.0716   -0.0527 C   0  0  0  0  0  0  0  0  0  0  0  0
   -1.5265   -1.0431    0.9671 O   0  0  0  0  0  0  0  0  0  0  0  0
   -2.7488   -1.3660    1.6315 C   0  0  0  0  0  0  0  0  0  0  0  0
   -3.2271   -2.7526    1.1658 C   0  0  0  0  0  0  0  0  0  0  0  0
   -2.3013   -3.7583    1.4833 O   0  0  0  0  0  0  0  0  0  0  0  0
   -3.8583   -0.3184    1.4235 C   0  0  0  0  0  0  0  0  0  0  0  0
   -4.8717   -0.4509    2.3851 O   0  0  0  0  0  0  0  0  0  0  0  0
   -3.3269    1.1351    1.3711 C   0  0  0  0  0  0  0  0  0  0  0  0
   -4.2399    1.9578    0.6895 O   0  0  0  0  0  0  0  0  0  0  0  0
   -1.9572    1.2652    0.6579 C   0  0  0  0  0  0  0  0  0  0  0  0
   -0.9434    1.6166    1.5639 O   0  0  0  0  0  0  0  0  0  0  0  0
    1.5042   -1.2683   -0.4870 C   0  0  0  0  0  0  0  0  0  0  0  0
    0.9658   -2.2612    0.3471 O   0  0  0  0  0  0  0  0  0  0  0  0
    2.9922   -1.0523   -0.1590 C   0  0  0  0  0  0  0  0  0  0  0  0
    3.7326   -2.2096   -0.4401 O   0  0  0  0  0  0  0  0  0  0  0  0
    5.2382    2.1456   -1.4966 H   0  0  0  0  0  0  0  0  0  0  0  0
    5.7698    0.6619   -2.3404 H   0  0  0  0  0  0  0  0  0  0  0  0
    6.6248    1.2100   -0.8690 H   0  0  0  0  0  0  0  0  0  0  0  0
    3.6188   -0.2265   -2.0571 H   0  0  0  0  0  0  0  0  0  0  0  0
    1.4452    0.7326   -2.3570 H   0  0  0  0  0  0  0  0  0  0  0  0
    0.7852    2.8215   -0.2160 H   0  0  0  0  0  0  0  0  0  0  0  0
   -0.2490    2.3650   -1.6003 H   0  0  0  0  0  0  0  0  0  0  0  0
    2.3142    3.4982   -1.8372 H   0  0  0  0  0  0  0  0  0  0  0  0
    0.7173    0.4383    0.5964 H   0  0  0  0  0  0  0  0  0  0  0  0
   -2.5117   -0.3084   -0.7123 H   0  0  0  0  0  0  0  0  0  0  0  0
   -2.4937   -1.4351    2.6967 H   0  0  0  0  0  0  0  0  0  0  0  0
   -3.4121   -2.7220    0.0839 H   0  0  0  0  0  0  0  0  0  0  0  0
   -4.1552   -3.0059    1.6813 H   0  0  0  0  0  0  0  0  0  0  0  0
   -1.4613   -3.5530    1.0451 H   0  0  0  0  0  0  0  0  0  0  0  0
   -4.3633   -0.5169    0.4709 H   0  0  0  0  0  0  0  0  0  0  0  0
   -4.5145   -0.3296    3.2781 H   0  0  0  0  0  0  0  0  0  0  0  0
   -3.1938    1.5040    2.4016 H   0  0  0  0  0  0  0  0  0  0  0  0
   -5.1156    1.8724    1.0976 H   0  0  0  0  0  0  0  0  0  0  0  0
   -2.0241    2.0809   -0.0646 H   0  0  0  0  0  0  0  0  0  0  0  0
   -0.8631    0.9139    2.2284 H   0  0  0  0  0  0  0  0  0  0  0  0
    1.4201   -1.6715   -1.5029 H   0  0  0  0  0  0  0  0  0  0  0  0
    0.8579   -1.9085    1.2425 H   0  0  0  0  0  0  0  0  0  0  0  0
    3.1063   -0.7686    0.8992 H   0  0  0  0  0  0  0  0  0  0  0  0
    3.2753   -2.9698   -0.0434 H   0  0  0  0  0  0  0  0  0  0  0  0
  1  2  1  0  0  0  0
  2  3  1  0  0  0  0
  3  4  1  0  0  0  0
  4  5  1  0  0  0  0
  5  6  1  0  0  0  0
  6  7  1  0  0  0  0
  5  8  1  0  0  0  0
  8  9  1  0  0  0  0
  9 10  1  0  0  0  0
 10 11  1  0  0  0  0
 11 12  1  0  0  0  0
 12 13  1  0  0  0  0
 13 14  1  0  0  0  0
 12 15  1  0  0  0  0
 15 16  1  0  0  0  0
 15 17  1  0  0  0  0
 17 18  1  0  0  0  0
 10 19  1  0  0  0  0
 17 19  1  0  0  0  0
 19 20  1  0  0  0  0
  8 21  1  0  0  0  0
 21 22  1  0  0  0  0
  3 23  1  0  0  0  0
 21 23  1  0  0  0  0
 23 24  1  0  0  0  0
  1 25  1  0  0  0  0
  1 26  1  0  0  0  0
  1 27  1  0  0  0  0
  3 28  1  0  0  0  0
  5 29  1  0  0  0  0
  6 30  1  0  0  0  0
  6 31  1  0  0  0  0
  7 32  1  0  0  0  0
  8 33  1  0  0  0  0
 10 34  1  0  0  0  0
 12 35  1  0  0  0  0
 13 36  1  0  0  0  0
 13 37  1  0  0  0  0
 14 38  1  0  0  0  0
 15 39  1  0  0  0  0
 16 40  1  0  0  0  0
 17 41  1  0  0  0  0
 18 42  1  0  0  0  0
 19 43  1  0  0  0  0
 20 44  1  0  0  0  0
 21 45  1  0  0  0  0
 22 46  1  0  0  0  0
 23 47  1  0  0  0  0
 24 48  1  0  0  0  0
M  END
