 xtb: 6.7.1 (edcfbbe)
          09222613263D

 48 49  0     0  0            999 V2000
    5.6074   -0.2843    0.1916 C   0  0  0  0  0  0  0  0  0  0  0  0
    4.7064    0.7432    0.5548 O   0  0  0  0  0  0  0  0  0  0  0  0
    3.5070    0.3013    1.0690 C   0  0  0  0  0  0  0  0  0  0  0  0
    2.7333   -0.2265    0.0078 O   0  0  0  0  0  0  0  0  0  0  0  0
    1.4540   -0.6954    0.3889 C   0  0  0  0  0  0  0  0  0  0  0  0
    0.9091   -1.4135   -0.8456 C   0  0  0  0  0  0  0  0  0  0  0  0
    1.7609   -2.4503   -1.2395 O   0  0  0  0  0  0  0  0  0  0  0  0
    0.6018    0.4758    0.9114 C   0  0  0  0  0  0  0  0  0  0  0  0
   -0.6700    0.0331    1.3487 O   0  0  0  0  0  0  0  0  0  0  0  0
   -1.8002    0.7490    0.9118 C   0  0  0  0  0  0  0  0  0  0  0  0
   -1.7898    1.1609   -0.4246 O   0  0  0  0  0  0  0  0  0  0  0  0
   -2.1450    0.2200   -1.4315 C   0  0  0  0  0  0  0  0  0  0  0  0
   -2.3582    1.0319   -2.7205 C   0  0  0  0  0  0  0  0  0  0  0  0
   -2.5698    0.2018   -3.8370 O   0  0  0  0  0  0  0  0  0  0  0  0
   -3.3955   -0.6045   -1.0894 C   0  0  0  0  0  0  0  0  0  0  0  0
   -3.5775   -1.6578   -2.0026 O   0  0  0  0  0  0  0  0  0  0  0  0
   -3.2331   -1.2093    0.3071 C   0  0  0  0  0  0  0  0  0  0  0  0
   -4.3686   -1.9446    0.6888 O   0  0  0  0  0  0  0  0  0  0  0  0
   -3.0527   -0.0560    1.2934 C   0  0  0  0  0  0  0  0  0  0  0  0
   -2.9483   -0.4912    2.6126 O   0  0  0  0  0  0  0  0  0  0  0  0
    1.3389    1.1543    2.0769 C   0  0  0  0  0  0  0  0  0  0  0  0
    0.6874    2.3179    2.5264 O   0  0  0  0  0  0  0  0  0  0  0  0
    2.7956    1.4946    1.7154 C   0  0  0  0  0  0  0  0  0  0  0  0
    3.4996    1.8616    2.8688 O   0  0  0  0  0  0  0  0  0  0  0  0
    5.2117   -0.8871   -0.6306 H   0  0  0  0  0  0  0  0  0  0  0  0
    5.8220   -0.9338    1.0471 H   0  0  0  0  0  0  0  0  0  0  0  0
    6.5179    0.2179   -0.1263 H   0  0  0  0  0  0  0  0  0  0  0  0
    3.6589   -0.4855    1.8368 H   0  0  0  0  0  0  0  0  0  0  0  0
    1.5582   -1.4297    1.2052 H   0  0  0  0  0  0  0  0  0  0  0  0
    0.8067   -0.6770   -1.6570 H   0  0  0  0  0  0  0  0  0  0  0  0
   -0.0527   -1.8716   -0.6124 H   0  0  0  0  0  0  0  0  0  0  0  0
    2.6558   -2.0876   -1.2602 H   0  0  0  0  0  0  0  0  0  0  0  0
    0.4764    1.2031    0.0936 H   0  0  0  0  0  0  0  0  0  0  0  0
   -1.8295    1.7064    1.4641 H   0  0  0  0  0  0  0  0  0  0  0  0
   -1.3263   -0.4936   -1.5932 H   0  0  0  0  0  0  0  0  0  0  0  0
   -1.4989    1.6957   -2.8670 H   0  0  0  0  0  0  0  0  0  0  0  0
   -3.2549    1.6471   -2.6214 H   0  0  0  0  0  0  0  0  0  0  0  0
   -1.7491   -0.2567   -4.0538 H   0  0  0  0  0  0  0  0  0  0  0  0
   -4.2810    0.0530   -1.0830 H   0  0  0  0  0  0  0  0  0  0  0  0
   -3.5871   -1.2781   -2.8951 H   0  0  0  0  0  0  0  0  0  0  0  0
   -2.3401   -1.8531    0.3285 H   0  0  0  0  0  0  0  0  0  0  0  0
   -4.5951   -2.5199   -0.0526 H   0  0  0  0  0  0  0  0  0  0  0  0
   -3.9221    0.6175    1.1839 H   0  0  0  0  0  0  0  0  0  0  0  0
   -3.5701   -1.2250    2.7137 H   0  0  0  0  0  0  0  0  0  0  0  0
    1.3268    0.4749    2.9363 H   0  0  0  0  0  0  0  0  0  0  0  0
    0.5494    2.9138    1.7794 H   0  0  0  0  0  0  0  0  0  0  0  0
    2.8072    2.3160    0.9778 H   0  0  0  0  0  0  0  0  0  0  0  0
    2.9233    2.4414    3.3867 H   0  0  0  0  0  0  0  0  0  0  0  0
  1  2  1  0  0  0  0
  2  3  1  0  0  0  0
  3  4  1  0  0  0  0
  4  5  1  0  0  0  0
  5  6  1  0  0  0  0
  6  7  1  0  0  0  0
  5  8  1  0  0  0  0
  8  9  1  0  0  0  0
  9 10  1  0  0  0  0
 10 11  1  0  0  0  0
 11 12  1  0  0  0  0
 12 13  1  0  0  0  0
 13 14  1  0  0  0  0
 12 15  1  0  0  0  0
 15 16  1  0  0  0  0
 15 17  1  0  0  0  0
 17 18  1  0  0  0  0
 10 19  1  0  0  0  0
 17 19  1  0  0  0  0
 19 20  1  0  0  0  0
  8 21  1  0  0  0  0
 21 22  1  0  0  0  0
  3 23  1  0  0  0  0
 21 23  1  0  0  0  0
 23 24  1  0  0  0  0
  1 25  1  0  0  0  0
  1 26  1  0  0  0  0
  1 27  1  0  0  0  0
  3 28  1  0  0  0  0
  5 29  1  0  0  0  0
  6 30  1  0  0  0  0
  6 31  1  0  0  0  0
  7 32  1  0  0  0  0
  8 33  1  0  0  0  0
 10 34  1  0  0  0  0
 12 35  1  0  0  0  0
 13 36  1  0  0  0  0
 13 37  1  0  0  0  0
 14 38  1  0  0  0  0
 15 39  1  0  0  0  0
 16 40  1  0  0  0  0
 17 41  1  0  0  0  0
 18 42  1  0  0  0  0
 19 43  1  0  0  0  0
 20 44  1  0  0  0  0
 21 45  1  0  0  0  0
 22 46  1  0  0  0  0
 23 47  1  0  0  0  0
 24 48  1  0  0  0  0
M  END
