 xtb: 6.7.1 (edcfbbe)
          09222613113D

 48 49  0     0  0            999 V2000
    5.9534   -0.5328    0.0762 C   0  0  0  0  0  0  0  0  0  0  0  0
    4.9858    0.4089   -0.3723 O   0  0  0  0  0  0  0  0  0  0  0  0
    3.8225    0.4194    0.3711 C   0  0  0  0  0  0  0  0  0  0  0  0
    3.1290   -0.7858    0.1366 O   0  0  0  0  0  0  0  0  0  0  0  0
    1.9253   -0.9289    0.8613 C   0  0  0  0  0  0  0  0  0  0  0  0
    1.3911   -2.3364    0.5612 C   0  0  0  0  0  0  0  0  0  0  0  0
    2.0866   -3.3446    1.2504 O   0  0  0  0  0  0  0  0  0  0  0  0
    0.9267    0.1722    0.4545 C   0  0  0  0  0  0  0  0  0  0  0  0
   -0.2050    0.1601    1.3177 O   0  0  0  0  0  0  0  0  0  0  0  0
   -1.4987    0.1678    0.7787 C   0  0  0  0  0  0  0  0  0  0  0  0
   -1.4831    0.1758   -0.6219 O   0  0  0  0  0  0  0  0  0  0  0  0
   -2.7421    0.4615   -1.2185 C   0  0  0  0  0  0  0  0  0  0  0  0
   -2.9106    1.9663   -1.5146 C   0  0  0  0  0  0  0  0  0  0  0  0
   -4.1202    2.2077   -2.1910 O   0  0  0  0  0  0  0  0  0  0  0  0
   -3.9241   -0.0582   -0.3790 C   0  0  0  0  0  0  0  0  0  0  0  0
   -5.0298   -0.3727   -1.1849 O   0  0  0  0  0  0  0  0  0  0  0  0
   -3.4800   -1.3331    0.3451 C   0  0  0  0  0  0  0  0  0  0  0  0
   -4.5360   -1.9250    1.0552 O   0  0  0  0  0  0  0  0  0  0  0  0
   -2.3592   -0.9998    1.3443 C   0  0  0  0  0  0  0  0  0  0  0  0
   -1.5663   -2.1230    1.6063 O   0  0  0  0  0  0  0  0  0  0  0  0
    1.5824    1.5606    0.5736 C   0  0  0  0  0  0  0  0  0  0  0  0
    0.7632    2.5780    0.0497 O   0  0  0  0  0  0  0  0  0  0  0  0
    2.9758    1.6170   -0.0751 C   0  0  0  0  0  0  0  0  0  0  0  0
    3.6390    2.7958    0.2954 O   0  0  0  0  0  0  0  0  0  0  0  0
    5.5490   -1.5466    0.0417 H   0  0  0  0  0  0  0  0  0  0  0  0
    6.2695   -0.2967    1.0974 H   0  0  0  0  0  0  0  0  0  0  0  0
    6.7929   -0.4368   -0.6069 H   0  0  0  0  0  0  0  0  0  0  0  0
    4.0418    0.5186    1.4572 H   0  0  0  0  0  0  0  0  0  0  0  0
    2.1243   -0.8249    1.9412 H   0  0  0  0  0  0  0  0  0  0  0  0
    1.5455   -2.5389   -0.5006 H   0  0  0  0  0  0  0  0  0  0  0  0
    0.3249   -2.3615    0.7976 H   0  0  0  0  0  0  0  0  0  0  0  0
    1.8874   -3.2741    2.1926 H   0  0  0  0  0  0  0  0  0  0  0  0
    0.6202   -0.0039   -0.5810 H   0  0  0  0  0  0  0  0  0  0  0  0
   -1.9699    1.1083    1.1325 H   0  0  0  0  0  0  0  0  0  0  0  0
   -2.7328   -0.0948   -2.1651 H   0  0  0  0  0  0  0  0  0  0  0  0
   -2.0478    2.3257   -2.0831 H   0  0  0  0  0  0  0  0  0  0  0  0
   -2.9614    2.5245   -0.5761 H   0  0  0  0  0  0  0  0  0  0  0  0
   -4.0133    1.9959   -3.1276 H   0  0  0  0  0  0  0  0  0  0  0  0
   -4.2112    0.6895    0.3769 H   0  0  0  0  0  0  0  0  0  0  0  0
   -5.3443    0.4473   -1.5964 H   0  0  0  0  0  0  0  0  0  0  0  0
   -3.0832   -2.0369   -0.4051 H   0  0  0  0  0  0  0  0  0  0  0  0
   -5.3073   -1.9471    0.4702 H   0  0  0  0  0  0  0  0  0  0  0  0
   -2.8267   -0.6469    2.2757 H   0  0  0  0  0  0  0  0  0  0  0  0
   -2.1389   -2.8166    1.9637 H   0  0  0  0  0  0  0  0  0  0  0  0
    1.6835    1.7976    1.6395 H   0  0  0  0  0  0  0  0  0  0  0  0
    0.5623    2.3769   -0.8746 H   0  0  0  0  0  0  0  0  0  0  0  0
    2.8815    1.5533   -1.1716 H   0  0  0  0  0  0  0  0  0  0  0  0
    3.0280    3.5374    0.1652 H   0  0  0  0  0  0  0  0  0  0  0  0
  1  2  1  0  0  0  0
  2  3  1  0  0  0  0
  3  4  1  0  0  0  0
  4  5  1  0  0  0  0
  5  6  1  0  0  0  0
  6  7  1  0  0  0  0
  5  8  1  0  0  0  0
  8  9  1  0  0  0  0
  9 10  1  0  0  0  0
 10 11  1  0  0  0  0
 11 12  1  0  0  0  0
 12 13  1  0  0  0  0
 13 14  1  0  0  0  0
 12 15  1  0  0  0  0
 15 16  1  0  0  0  0
 15 17  1  0  0  0  0
 17 18  1  0  0  0  0
 10 19  1  0  0  0  0
 17 19  1  0  0  0  0
 19 20  1  0  0  0  0
  8 21  1  0  0  0  0
 21 22  1  0  0  0  0
  3 23  1  0  0  0  0
 21 23  1  0  0  0  0
 23 24  1  0  0  0  0
  1 25  1  0  0  0  0
  1 26  1  0  0  0  0
  1 27  1  0  0  0  0
  3 28  1  0  0  0  0
  5 29  1  0  0  0  0
  6 30  1  0  0  0  0
  6 31  1  0  0  0  0
  7 32  1  0  0  0  0
  8 33  1  0  0  0  0
 10 34  1  0  0  0  0
 12 35  1  0  0  0  0
 13 36  1  0  0  0  0
 13 37  1  0  0  0  0
 14 38  1  0  0  0  0
 15 39  1  0  0  0  0
 16 40  1  0  0  0  0
 17 41  1  0  0  0  0
 18 42  1  0  0  0  0
 19 43  1  0  0  0  0
 20 44  1  0  0  0  0
 21 45  1  0  0  0  0
 22 46  1  0  0  0  0
 23 47  1  0  0  0  0
 24 48  1  0  0  0  0
M  END
