 xtb: 6.7.1 (edcfbbe)
          09222613013D

 48 49  0     0  0            999 V2000
    5.5705   -1.6661   -0.3593 C   0  0  0  0  0  0  0  0  0  0  0  0
    4.9463   -0.5555    0.2720 O   0  0  0  0  0  0  0  0  0  0  0  0
    3.5808   -0.6696    0.4231 C   0  0  0  0  0  0  0  0  0  0  0  0
    2.9641   -0.4985   -0.8376 O   0  0  0  0  0  0  0  0  0  0  0  0
    1.5572   -0.5702   -0.7852 C   0  0  0  0  0  0  0  0  0  0  0  0
    1.0425   -0.4917   -2.2291 C   0  0  0  0  0  0  0  0  0  0  0  0
    1.4107   -1.6089   -2.9871 O   0  0  0  0  0  0  0  0  0  0  0  0
    0.9547    0.5556    0.0793 C   0  0  0  0  0  0  0  0  0  0  0  0
   -0.4405    0.2998    0.1464 O   0  0  0  0  0  0  0  0  0  0  0  0
   -1.3536    1.3290   -0.1406 C   0  0  0  0  0  0  0  0  0  0  0  0
   -2.2809    0.8803   -1.0885 O   0  0  0  0  0  0  0  0  0  0  0  0
   -3.0160   -0.2794   -0.6996 C   0  0  0  0  0  0  0  0  0  0  0  0
   -3.9722   -0.6037   -1.8549 C   0  0  0  0  0  0  0  0  0  0  0  0
   -3.3023   -1.0491   -3.0020 O   0  0  0  0  0  0  0  0  0  0  0  0
   -3.7940   -0.0423    0.6046 C   0  0  0  0  0  0  0  0  0  0  0  0
   -4.4435   -1.1994    1.0599 O   0  0  0  0  0  0  0  0  0  0  0  0
   -2.8507    0.5218    1.6778 C   0  0  0  0  0  0  0  0  0  0  0  0
   -3.5491    0.9082    2.8367 O   0  0  0  0  0  0  0  0  0  0  0  0
   -2.1426    1.7567    1.1155 C   0  0  0  0  0  0  0  0  0  0  0  0
   -1.2976    2.3500    2.0635 O   0  0  0  0  0  0  0  0  0  0  0  0
    1.5936    0.5406    1.4774 C   0  0  0  0  0  0  0  0  0  0  0  0
    1.3626    1.7179    2.2039 O   0  0  0  0  0  0  0  0  0  0  0  0
    3.1263    0.4146    1.4042 C   0  0  0  0  0  0  0  0  0  0  0  0
    3.6419    0.0907    2.6663 O   0  0  0  0  0  0  0  0  0  0  0  0
    5.2248   -1.7740   -1.3892 H   0  0  0  0  0  0  0  0  0  0  0  0
    5.3673   -2.5866    0.1966 H   0  0  0  0  0  0  0  0  0  0  0  0
    6.6352   -1.4487   -0.3439 H   0  0  0  0  0  0  0  0  0  0  0  0
    3.3028   -1.6649    0.8332 H   0  0  0  0  0  0  0  0  0  0  0  0
    1.2510   -1.5333   -0.3441 H   0  0  0  0  0  0  0  0  0  0  0  0
    1.4215    0.4339   -2.6820 H   0  0  0  0  0  0  0  0  0  0  0  0
   -0.0484   -0.4718   -2.2160 H   0  0  0  0  0  0  0  0  0  0  0  0
    2.3750   -1.6660   -2.9921 H   0  0  0  0  0  0  0  0  0  0  0  0
    1.1513    1.5269   -0.3925 H   0  0  0  0  0  0  0  0  0  0  0  0
   -0.8523    2.1955   -0.5881 H   0  0  0  0  0  0  0  0  0  0  0  0
   -2.3127   -1.1136   -0.5595 H   0  0  0  0  0  0  0  0  0  0  0  0
   -4.5684    0.2922   -2.0697 H   0  0  0  0  0  0  0  0  0  0  0  0
   -4.6379   -1.4133   -1.5492 H   0  0  0  0  0  0  0  0  0  0  0  0
   -2.7194   -0.3422   -3.3069 H   0  0  0  0  0  0  0  0  0  0  0  0
   -4.5918    0.6882    0.4246 H   0  0  0  0  0  0  0  0  0  0  0  0
   -3.8081   -1.9251    1.1337 H   0  0  0  0  0  0  0  0  0  0  0  0
   -2.0877   -0.2339    1.9296 H   0  0  0  0  0  0  0  0  0  0  0  0
   -4.2204    0.2381    3.0273 H   0  0  0  0  0  0  0  0  0  0  0  0
   -2.9030    2.4825    0.7880 H   0  0  0  0  0  0  0  0  0  0  0  0
   -1.7988    2.4248    2.8909 H   0  0  0  0  0  0  0  0  0  0  0  0
    1.1977   -0.3350    2.0198 H   0  0  0  0  0  0  0  0  0  0  0  0
    0.4092    1.9360    2.1966 H   0  0  0  0  0  0  0  0  0  0  0  0
    3.5348    1.3721    1.0481 H   0  0  0  0  0  0  0  0  0  0  0  0
    3.3699    0.7872    3.2815 H   0  0  0  0  0  0  0  0  0  0  0  0
  1  2  1  0  0  0  0
  2  3  1  0  0  0  0
  3  4  1  0  0  0  0
  4  5  1  0  0  0  0
  5  6  1  0  0  0  0
  6  7  1  0  0  0  0
  5  8  1  0  0  0  0
  8  9  1  0  0  0  0
  9 10  1  0  0  0  0
 10 11  1  0  0  0  0
 11 12  1  0  0  0  0
 12 13  1  0  0  0  0
 13 14  1  0  0  0  0
 12 15  1  0  0  0  0
 15 16  1  0  0  0  0
 15 17  1  0  0  0  0
 17 18  1  0  0  0  0
 10 19  1  0  0  0  0
 17 19  1  0  0  0  0
 19 20  1  0  0  0  0
  8 21  1  0  0  0  0
 21 22  1  0  0  0  0
  3 23  1  0  0  0  0
 21 23  1  0  0  0  0
 23 24  1  0  0  0  0
  1 25  1  0  0  0  0
  1 26  1  0  0  0  0
  1 27  1  0  0  0  0
  3 28  1  0  0  0  0
  5 29  1  0  0  0  0
  6 30  1  0  0  0  0
  6 31  1  0  0  0  0
  7 32  1  0  0  0  0
  8 33  1  0  0  0  0
 10 34  1  0  0  0  0
 12 35  1  0  0  0  0
 13 36  1  0  0  0  0
 13 37  1  0  0  0  0
 14 38  1  0  0  0  0
 15 39  1  0  0  0  0
 16 40  1  0  0  0  0
 17 41  1  0  0  0  0
 18 42  1  0  0  0  0
 19 43  1  0  0  0  0
 20 44  1  0  0  0  0
 21 45  1  0  0  0  0
 22 46  1  0  0  0  0
 23 47  1  0  0  0  0
 24 48  1  0  0  0  0
M  END
