 xtb: 6.7.1 (edcfbbe)
          09212615513D

 48 49  0     0  0            999 V2000
    5.2304    0.5896   -0.1823 C   0  0  0  0  0  0  0  0  0  0  0  0
    4.2249    0.0202   -1.0167 O   0  0  0  0  0  0  0  0  0  0  0  0
    3.2077    0.9021   -1.3824 C   0  0  0  0  0  0  0  0  0  0  0  0
    2.4868    1.2734   -0.2286 O   0  0  0  0  0  0  0  0  0  0  0  0
    1.0725    1.3157   -0.3674 C   0  0  0  0  0  0  0  0  0  0  0  0
    0.5326    1.8823    0.9483 C   0  0  0  0  0  0  0  0  0  0  0  0
    0.9001    3.2227    1.1395 O   0  0  0  0  0  0  0  0  0  0  0  0
    0.5289   -0.0879   -0.6781 C   0  0  0  0  0  0  0  0  0  0  0  0
   -0.8033    0.0130   -1.1512 O   0  0  0  0  0  0  0  0  0  0  0  0
   -1.8206   -0.8173   -0.5771 C   0  0  0  0  0  0  0  0  0  0  0  0
   -1.4458   -1.4943    0.5697 O   0  0  0  0  0  0  0  0  0  0  0  0
   -1.8218   -0.8705    1.8014 C   0  0  0  0  0  0  0  0  0  0  0  0
   -1.1919   -1.6882    2.9343 C   0  0  0  0  0  0  0  0  0  0  0  0
    0.2133   -1.6834    2.8835 O   0  0  0  0  0  0  0  0  0  0  0  0
   -3.3564   -0.8014    1.9463 C   0  0  0  0  0  0  0  0  0  0  0  0
   -3.7385    0.2376    2.8059 O   0  0  0  0  0  0  0  0  0  0  0  0
   -4.0315   -0.6692    0.5590 C   0  0  0  0  0  0  0  0  0  0  0  0
   -4.3521   -1.9054   -0.0220 O   0  0  0  0  0  0  0  0  0  0  0  0
   -3.0877    0.0520   -0.4098 C   0  0  0  0  0  0  0  0  0  0  0  0
   -2.8148    1.3296    0.1036 O   0  0  0  0  0  0  0  0  0  0  0  0
    1.4085   -0.8043   -1.7406 C   0  0  0  0  0  0  0  0  0  0  0  0
    2.1247   -1.8821   -1.1974 O   0  0  0  0  0  0  0  0  0  0  0  0
    2.3550    0.1853   -2.4412 C   0  0  0  0  0  0  0  0  0  0  0  0
    1.6923    1.1567   -3.2037 O   0  0  0  0  0  0  0  0  0  0  0  0
    4.8146    0.8594    0.7890 H   0  0  0  0  0  0  0  0  0  0  0  0
    5.6592    1.4736   -0.6602 H   0  0  0  0  0  0  0  0  0  0  0  0
    5.9860   -0.1826   -0.0706 H   0  0  0  0  0  0  0  0  0  0  0  0
    3.6367    1.8182   -1.8342 H   0  0  0  0  0  0  0  0  0  0  0  0
    0.8053    1.9902   -1.1922 H   0  0  0  0  0  0  0  0  0  0  0  0
    0.8902    1.2549    1.7760 H   0  0  0  0  0  0  0  0  0  0  0  0
   -0.5575    1.8749    0.9201 H   0  0  0  0  0  0  0  0  0  0  0  0
    1.8656    3.2828    1.1267 H   0  0  0  0  0  0  0  0  0  0  0  0
    0.5608   -0.6968    0.2326 H   0  0  0  0  0  0  0  0  0  0  0  0
   -2.0408   -1.6105   -1.3106 H   0  0  0  0  0  0  0  0  0  0  0  0
   -1.4204    0.1491    1.8352 H   0  0  0  0  0  0  0  0  0  0  0  0
   -1.5795   -2.7116    2.8920 H   0  0  0  0  0  0  0  0  0  0  0  0
   -1.4719   -1.2303    3.8848 H   0  0  0  0  0  0  0  0  0  0  0  0
    0.4946   -2.2362    2.1416 H   0  0  0  0  0  0  0  0  0  0  0  0
   -3.7151   -1.7210    2.4212 H   0  0  0  0  0  0  0  0  0  0  0  0
   -3.4934    1.0863    2.4056 H   0  0  0  0  0  0  0  0  0  0  0  0
   -4.9299   -0.0483    0.6881 H   0  0  0  0  0  0  0  0  0  0  0  0
   -5.0505   -2.3368    0.4925 H   0  0  0  0  0  0  0  0  0  0  0  0
   -3.5735    0.1207   -1.3900 H   0  0  0  0  0  0  0  0  0  0  0  0
   -2.3476    1.8383   -0.5748 H   0  0  0  0  0  0  0  0  0  0  0  0
    0.7243   -1.2386   -2.4799 H   0  0  0  0  0  0  0  0  0  0  0  0
    2.9520   -1.5533   -0.8061 H   0  0  0  0  0  0  0  0  0  0  0  0
    3.0577   -0.3923   -3.0603 H   0  0  0  0  0  0  0  0  0  0  0  0
    1.2197    0.7339   -3.9357 H   0  0  0  0  0  0  0  0  0  0  0  0
  1  2  1  0  0  0  0
  2  3  1  0  0  0  0
  3  4  1  0  0  0  0
  4  5  1  0  0  0  0
  5  6  1  0  0  0  0
  6  7  1  0  0  0  0
  5  8  1  0  0  0  0
  8  9  1  0  0  0  0
  9 10  1  0  0  0  0
 10 11  1  0  0  0  0
 11 12  1  0  0  0  0
 12 13  1  0  0  0  0
 13 14  1  0  0  0  0
 12 15  1  0  0  0  0
 15 16  1  0  0  0  0
 15 17  1  0  0  0  0
 17 18  1  0  0  0  0
 10 19  1  0  0  0  0
 17 19  1  0  0  0  0
 19 20  1  0  0  0  0
  8 21  1  0  0  0  0
 21 22  1  0  0  0  0
  3 23  1  0  0  0  0
 21 23  1  0  0  0  0
 23 24  1  0  0  0  0
  1 25  1  0  0  0  0
  1 26  1  0  0  0  0
  1 27  1  0  0  0  0
  3 28  1  0  0  0  0
  5 29  1  0  0  0  0
  6 30  1  0  0  0  0
  6 31  1  0  0  0  0
  7 32  1  0  0  0  0
  8 33  1  0  0  0  0
 10 34  1  0  0  0  0
 12 35  1  0  0  0  0
 13 36  1  0  0  0  0
 13 37  1  0  0  0  0
 14 38  1  0  0  0  0
 15 39  1  0  0  0  0
 16 40  1  0  0  0  0
 17 41  1  0  0  0  0
 18 42  1  0  0  0  0
 19 43  1  0  0  0  0
 20 44  1  0  0  0  0
 21 45  1  0  0  0  0
 22 46  1  0  0  0  0
 23 47  1  0  0  0  0
 24 48  1  0  0  0  0
M  END
