 xtb: 6.7.1 (edcfbbe)
          09192616433D

 48 49  0     0  0            999 V2000
    5.6416    0.9397    0.6045 C   0  0  0  0  0  0  0  0  0  0  0  0
    4.9464   -0.1205   -0.0463 O   0  0  0  0  0  0  0  0  0  0  0  0
    3.6264    0.1527   -0.3421 C   0  0  0  0  0  0  0  0  0  0  0  0
    2.8991    0.1884    0.8708 O   0  0  0  0  0  0  0  0  0  0  0  0
    1.5064    0.3937    0.7293 C   0  0  0  0  0  0  0  0  0  0  0  0
    0.9083    0.4478    2.1496 C   0  0  0  0  0  0  0  0  0  0  0  0
    0.4918    1.7346    2.5273 O   0  0  0  0  0  0  0  0  0  0  0  0
    0.8861   -0.7274   -0.1219 C   0  0  0  0  0  0  0  0  0  0  0  0
   -0.4761   -0.4480   -0.4039 O   0  0  0  0  0  0  0  0  0  0  0  0
   -1.4551   -1.2913    0.1349 C   0  0  0  0  0  0  0  0  0  0  0  0
   -1.9878   -0.7770    1.3233 O   0  0  0  0  0  0  0  0  0  0  0  0
   -2.6127    0.4982    1.1569 C   0  0  0  0  0  0  0  0  0  0  0  0
   -3.0283    1.0129    2.5471 C   0  0  0  0  0  0  0  0  0  0  0  0
   -2.3801    2.2021    2.9113 O   0  0  0  0  0  0  0  0  0  0  0  0
   -3.7916    0.3657    0.1821 C   0  0  0  0  0  0  0  0  0  0  0  0
   -4.5064    1.5607    0.0145 O   0  0  0  0  0  0  0  0  0  0  0  0
   -3.2689   -0.1589   -1.1671 C   0  0  0  0  0  0  0  0  0  0  0  0
   -4.3167   -0.3857   -2.0793 O   0  0  0  0  0  0  0  0  0  0  0  0
   -2.5414   -1.4862   -0.9362 C   0  0  0  0  0  0  0  0  0  0  0  0
   -1.9095   -1.9625   -2.0946 O   0  0  0  0  0  0  0  0  0  0  0  0
    1.6031   -0.8288   -1.4753 C   0  0  0  0  0  0  0  0  0  0  0  0
    1.1745   -1.9534   -2.2010 O   0  0  0  0  0  0  0  0  0  0  0  0
    3.1199   -0.9478   -1.2845 C   0  0  0  0  0  0  0  0  0  0  0  0
    3.7925   -0.7967   -2.5037 O   0  0  0  0  0  0  0  0  0  0  0  0
    5.2020    1.1424    1.5824 H   0  0  0  0  0  0  0  0  0  0  0  0
    5.6169    1.8432   -0.0111 H   0  0  0  0  0  0  0  0  0  0  0  0
    6.6628    0.5874    0.7148 H   0  0  0  0  0  0  0  0  0  0  0  0
    3.5277    1.1314   -0.8575 H   0  0  0  0  0  0  0  0  0  0  0  0
    1.3165    1.3486    0.2129 H   0  0  0  0  0  0  0  0  0  0  0  0
    1.6595    0.0495    2.8390 H   0  0  0  0  0  0  0  0  0  0  0  0
    0.0163   -0.1792    2.1980 H   0  0  0  0  0  0  0  0  0  0  0  0
    1.2610    2.3042    2.6693 H   0  0  0  0  0  0  0  0  0  0  0  0
    0.9866   -1.6829    0.4074 H   0  0  0  0  0  0  0  0  0  0  0  0
   -1.0289   -2.2662    0.4049 H   0  0  0  0  0  0  0  0  0  0  0  0
   -1.8768    1.1952    0.7280 H   0  0  0  0  0  0  0  0  0  0  0  0
   -2.8355    0.2119    3.2707 H   0  0  0  0  0  0  0  0  0  0  0  0
   -4.0949    1.2476    2.5488 H   0  0  0  0  0  0  0  0  0  0  0  0
   -1.4162    2.0636    2.9290 H   0  0  0  0  0  0  0  0  0  0  0  0
   -4.5109   -0.3585    0.5830 H   0  0  0  0  0  0  0  0  0  0  0  0
   -3.8937    2.2991   -0.1174 H   0  0  0  0  0  0  0  0  0  0  0  0
   -2.5505    0.5624   -1.5895 H   0  0  0  0  0  0  0  0  0  0  0  0
   -4.9565    0.3390   -1.9992 H   0  0  0  0  0  0  0  0  0  0  0  0
   -3.2692   -2.2211   -0.5615 H   0  0  0  0  0  0  0  0  0  0  0  0
   -2.5676   -1.9795   -2.8077 H   0  0  0  0  0  0  0  0  0  0  0  0
    1.3930    0.0917   -2.0431 H   0  0  0  0  0  0  0  0  0  0  0  0
    0.2039   -1.9362   -2.2790 H   0  0  0  0  0  0  0  0  0  0  0  0
    3.3523   -1.9184   -0.8242 H   0  0  0  0  0  0  0  0  0  0  0  0
    3.4805   -1.4874   -3.1098 H   0  0  0  0  0  0  0  0  0  0  0  0
  1  2  1  0  0  0  0
  2  3  1  0  0  0  0
  3  4  1  0  0  0  0
  4  5  1  0  0  0  0
  5  6  1  0  0  0  0
  6  7  1  0  0  0  0
  5  8  1  0  0  0  0
  8  9  1  0  0  0  0
  9 10  1  0  0  0  0
 10 11  1  0  0  0  0
 11 12  1  0  0  0  0
 12 13  1  0  0  0  0
 13 14  1  0  0  0  0
 12 15  1  0  0  0  0
 15 16  1  0  0  0  0
 15 17  1  0  0  0  0
 17 18  1  0  0  0  0
 10 19  1  0  0  0  0
 17 19  1  0  0  0  0
 19 20  1  0  0  0  0
  8 21  1  0  0  0  0
 21 22  1  0  0  0  0
  3 23  1  0  0  0  0
 21 23  1  0  0  0  0
 23 24  1  0  0  0  0
  1 25  1  0  0  0  0
  1 26  1  0  0  0  0
  1 27  1  0  0  0  0
  3 28  1  0  0  0  0
  5 29  1  0  0  0  0
  6 30  1  0  0  0  0
  6 31  1  0  0  0  0
  7 32  1  0  0  0  0
  8 33  1  0  0  0  0
 10 34  1  0  0  0  0
 12 35  1  0  0  0  0
 13 36  1  0  0  0  0
 13 37  1  0  0  0  0
 14 38  1  0  0  0  0
 15 39  1  0  0  0  0
 16 40  1  0  0  0  0
 17 41  1  0  0  0  0
 18 42  1  0  0  0  0
 19 43  1  0  0  0  0
 20 44  1  0  0  0  0
 21 45  1  0  0  0  0
 22 46  1  0  0  0  0
 23 47  1  0  0  0  0
 24 48  1  0  0  0  0
M  END
