 xtb: 6.7.1 (edcfbbe)
          09222613043D

 48 49  0     0  0            999 V2000
    1.6793    4.0658   -1.3321 C   0  0  0  0  0  0  0  0  0  0  0  0
    1.9049    2.7041   -1.6728 O   0  0  0  0  0  0  0  0  0  0  0  0
    1.5385    1.7978   -0.6902 C   0  0  0  0  0  0  0  0  0  0  0  0
    2.4117    1.9000    0.4128 O   0  0  0  0  0  0  0  0  0  0  0  0
    1.9516    1.1735    1.5429 C   0  0  0  0  0  0  0  0  0  0  0  0
    3.1773    0.8957    2.4235 C   0  0  0  0  0  0  0  0  0  0  0  0
    3.7985    2.0834    2.8402 O   0  0  0  0  0  0  0  0  0  0  0  0
    1.2062   -0.1217    1.1489 C   0  0  0  0  0  0  0  0  0  0  0  0
   -0.1739    0.2007    1.0330 O   0  0  0  0  0  0  0  0  0  0  0  0
   -1.1595   -0.5726    1.6831 C   0  0  0  0  0  0  0  0  0  0  0  0
   -2.3908   -0.1148    1.2123 O   0  0  0  0  0  0  0  0  0  0  0  0
   -2.6418   -0.3904   -0.1625 C   0  0  0  0  0  0  0  0  0  0  0  0
   -3.9552    0.3231   -0.5183 C   0  0  0  0  0  0  0  0  0  0  0  0
   -4.2863    0.1835   -1.8776 O   0  0  0  0  0  0  0  0  0  0  0  0
   -2.7448   -1.9078   -0.3766 C   0  0  0  0  0  0  0  0  0  0  0  0
   -2.9521   -2.2618   -1.7193 O   0  0  0  0  0  0  0  0  0  0  0  0
   -1.4218   -2.5333    0.0734 C   0  0  0  0  0  0  0  0  0  0  0  0
   -1.4621   -3.9400    0.0526 O   0  0  0  0  0  0  0  0  0  0  0  0
   -1.1168   -2.1104    1.5153 C   0  0  0  0  0  0  0  0  0  0  0  0
    0.0903   -2.6493    1.9788 O   0  0  0  0  0  0  0  0  0  0  0  0
    1.7678   -0.6634   -0.1756 C   0  0  0  0  0  0  0  0  0  0  0  0
    3.0974   -1.0386    0.0603 O   0  0  0  0  0  0  0  0  0  0  0  0
    1.6364    0.3879   -1.2972 C   0  0  0  0  0  0  0  0  0  0  0  0
    0.5107    0.0784   -2.0775 O   0  0  0  0  0  0  0  0  0  0  0  0
    2.2736    4.3536   -0.4635 H   0  0  0  0  0  0  0  0  0  0  0  0
    0.6187    4.2351   -1.1192 H   0  0  0  0  0  0  0  0  0  0  0  0
    1.9847    4.6407   -2.2024 H   0  0  0  0  0  0  0  0  0  0  0  0
    0.4993    1.9802   -0.3485 H   0  0  0  0  0  0  0  0  0  0  0  0
    1.2387    1.8071    2.0975 H   0  0  0  0  0  0  0  0  0  0  0  0
    3.8717    0.2616    1.8615 H   0  0  0  0  0  0  0  0  0  0  0  0
    2.8628    0.3764    3.3305 H   0  0  0  0  0  0  0  0  0  0  0  0
    4.0387    2.5806    2.0474 H   0  0  0  0  0  0  0  0  0  0  0  0
    1.3637   -0.8719    1.9263 H   0  0  0  0  0  0  0  0  0  0  0  0
   -1.1460   -0.3470    2.7621 H   0  0  0  0  0  0  0  0  0  0  0  0
   -1.8153   -0.0064   -0.7785 H   0  0  0  0  0  0  0  0  0  0  0  0
   -3.8736    1.3735   -0.2224 H   0  0  0  0  0  0  0  0  0  0  0  0
   -4.7710   -0.1306    0.0490 H   0  0  0  0  0  0  0  0  0  0  0  0
   -3.7023    0.7372   -2.4124 H   0  0  0  0  0  0  0  0  0  0  0  0
   -3.5589   -2.3012    0.2566 H   0  0  0  0  0  0  0  0  0  0  0  0
   -3.6547   -1.6912   -2.0768 H   0  0  0  0  0  0  0  0  0  0  0  0
   -0.6386   -2.1690   -0.6076 H   0  0  0  0  0  0  0  0  0  0  0  0
   -1.8176   -4.2123   -0.8043 H   0  0  0  0  0  0  0  0  0  0  0  0
   -1.9509   -2.4819    2.1377 H   0  0  0  0  0  0  0  0  0  0  0  0
    0.0803   -3.5966    1.7718 H   0  0  0  0  0  0  0  0  0  0  0  0
    1.1697   -1.5316   -0.4780 H   0  0  0  0  0  0  0  0  0  0  0  0
    3.4283   -1.5531   -0.6884 H   0  0  0  0  0  0  0  0  0  0  0  0
    2.5533    0.3678   -1.9057 H   0  0  0  0  0  0  0  0  0  0  0  0
    0.4798    0.6895   -2.8264 H   0  0  0  0  0  0  0  0  0  0  0  0
  1  2  1  0  0  0  0
  2  3  1  0  0  0  0
  3  4  1  0  0  0  0
  4  5  1  0  0  0  0
  5  6  1  0  0  0  0
  6  7  1  0  0  0  0
  5  8  1  0  0  0  0
  8  9  1  0  0  0  0
  9 10  1  0  0  0  0
 10 11  1  0  0  0  0
 11 12  1  0  0  0  0
 12 13  1  0  0  0  0
 13 14  1  0  0  0  0
 12 15  1  0  0  0  0
 15 16  1  0  0  0  0
 15 17  1  0  0  0  0
 17 18  1  0  0  0  0
 10 19  1  0  0  0  0
 17 19  1  0  0  0  0
 19 20  1  0  0  0  0
  8 21  1  0  0  0  0
 21 22  1  0  0  0  0
  3 23  1  0  0  0  0
 21 23  1  0  0  0  0
 23 24  1  0  0  0  0
  1 25  1  0  0  0  0
  1 26  1  0  0  0  0
  1 27  1  0  0  0  0
  3 28  1  0  0  0  0
  5 29  1  0  0  0  0
  6 30  1  0  0  0  0
  6 31  1  0  0  0  0
  7 32  1  0  0  0  0
  8 33  1  0  0  0  0
 10 34  1  0  0  0  0
 12 35  1  0  0  0  0
 13 36  1  0  0  0  0
 13 37  1  0  0  0  0
 14 38  1  0  0  0  0
 15 39  1  0  0  0  0
 16 40  1  0  0  0  0
 17 41  1  0  0  0  0
 18 42  1  0  0  0  0
 19 43  1  0  0  0  0
 20 44  1  0  0  0  0
 21 45  1  0  0  0  0
 22 46  1  0  0  0  0
 23 47  1  0  0  0  0
 24 48  1  0  0  0  0
M  END
