 xtb: 6.7.1 (edcfbbe)
          09222613043D

 48 49  0     0  0            999 V2000
    3.6385    3.6702    0.3347 C   0  0  0  0  0  0  0  0  0  0  0  0
    2.9021    2.6012   -0.2387 O   0  0  0  0  0  0  0  0  0  0  0  0
    1.5540    2.5600    0.1422 C   0  0  0  0  0  0  0  0  0  0  0  0
    1.3579    2.1888    1.4768 O   0  0  0  0  0  0  0  0  0  0  0  0
    1.5065    0.8144    1.8184 C   0  0  0  0  0  0  0  0  0  0  0  0
    2.9839    0.4074    1.9367 C   0  0  0  0  0  0  0  0  0  0  0  0
    3.5948    1.0197    3.0483 O   0  0  0  0  0  0  0  0  0  0  0  0
    0.6985   -0.1271    0.9088 C   0  0  0  0  0  0  0  0  0  0  0  0
   -0.6736    0.0661    1.2183 O   0  0  0  0  0  0  0  0  0  0  0  0
   -1.5665   -0.9827    1.5101 C   0  0  0  0  0  0  0  0  0  0  0  0
   -2.7911   -0.6932    0.8945 O   0  0  0  0  0  0  0  0  0  0  0  0
   -2.7276   -0.7407   -0.5254 C   0  0  0  0  0  0  0  0  0  0  0  0
   -4.0979   -0.2918   -1.0552 C   0  0  0  0  0  0  0  0  0  0  0  0
   -4.1015   -0.1612   -2.4562 O   0  0  0  0  0  0  0  0  0  0  0  0
   -2.3925   -2.1622   -1.0128 C   0  0  0  0  0  0  0  0  0  0  0  0
   -2.1645   -2.1979   -2.4006 O   0  0  0  0  0  0  0  0  0  0  0  0
   -1.1315   -2.7046   -0.3249 C   0  0  0  0  0  0  0  0  0  0  0  0
   -1.0202   -4.1006   -0.4894 O   0  0  0  0  0  0  0  0  0  0  0  0
   -1.1987   -2.4440    1.1831 C   0  0  0  0  0  0  0  0  0  0  0  0
   -0.0275   -2.8399    1.8463 O   0  0  0  0  0  0  0  0  0  0  0  0
    0.9902    0.1780   -0.5758 C   0  0  0  0  0  0  0  0  0  0  0  0
    2.2684   -0.3197   -0.8534 O   0  0  0  0  0  0  0  0  0  0  0  0
    0.8334    1.6760   -0.8881 C   0  0  0  0  0  0  0  0  0  0  0  0
   -0.5413    1.9322   -0.9889 O   0  0  0  0  0  0  0  0  0  0  0  0
    3.5501    3.6743    1.4233 H   0  0  0  0  0  0  0  0  0  0  0  0
    3.2828    4.6284   -0.0579 H   0  0  0  0  0  0  0  0  0  0  0  0
    4.6737    3.5085    0.0463 H   0  0  0  0  0  0  0  0  0  0  0  0
    1.1299    3.5821    0.1013 H   0  0  0  0  0  0  0  0  0  0  0  0
    1.0592    0.7591    2.8190 H   0  0  0  0  0  0  0  0  0  0  0  0
    3.5151    0.6530    1.0111 H   0  0  0  0  0  0  0  0  0  0  0  0
    3.0498   -0.6682    2.1070 H   0  0  0  0  0  0  0  0  0  0  0  0
    3.3987    1.9654    3.0174 H   0  0  0  0  0  0  0  0  0  0  0  0
    1.0147   -1.1508    1.1154 H   0  0  0  0  0  0  0  0  0  0  0  0
   -1.7860   -0.9349    2.5905 H   0  0  0  0  0  0  0  0  0  0  0  0
   -1.9553   -0.0407   -0.8773 H   0  0  0  0  0  0  0  0  0  0  0  0
   -4.3731    0.6415   -0.5556 H   0  0  0  0  0  0  0  0  0  0  0  0
   -4.8472   -1.0486   -0.8115 H   0  0  0  0  0  0  0  0  0  0  0  0
   -3.6105    0.6337   -2.7031 H   0  0  0  0  0  0  0  0  0  0  0  0
   -3.2299   -2.8286   -0.7418 H   0  0  0  0  0  0  0  0  0  0  0  0
   -2.9024   -1.7374   -2.8368 H   0  0  0  0  0  0  0  0  0  0  0  0
   -0.2477   -2.2168   -0.7552 H   0  0  0  0  0  0  0  0  0  0  0  0
   -1.0689   -4.2971   -1.4344 H   0  0  0  0  0  0  0  0  0  0  0  0
   -2.0536   -3.0305    1.5629 H   0  0  0  0  0  0  0  0  0  0  0  0
    0.1458   -3.7624    1.6051 H   0  0  0  0  0  0  0  0  0  0  0  0
    0.2337   -0.3292   -1.1964 H   0  0  0  0  0  0  0  0  0  0  0  0
    2.5124   -0.1119   -1.7658 H   0  0  0  0  0  0  0  0  0  0  0  0
    1.3269    1.8810   -1.8557 H   0  0  0  0  0  0  0  0  0  0  0  0
   -0.7118    2.8818   -0.9333 H   0  0  0  0  0  0  0  0  0  0  0  0
  1  2  1  0  0  0  0
  2  3  1  0  0  0  0
  3  4  1  0  0  0  0
  4  5  1  0  0  0  0
  5  6  1  0  0  0  0
  6  7  1  0  0  0  0
  5  8  1  0  0  0  0
  8  9  1  0  0  0  0
  9 10  1  0  0  0  0
 10 11  1  0  0  0  0
 11 12  1  0  0  0  0
 12 13  1  0  0  0  0
 13 14  1  0  0  0  0
 12 15  1  0  0  0  0
 15 16  1  0  0  0  0
 15 17  1  0  0  0  0
 17 18  1  0  0  0  0
 10 19  1  0  0  0  0
 17 19  1  0  0  0  0
 19 20  1  0  0  0  0
  8 21  1  0  0  0  0
 21 22  1  0  0  0  0
  3 23  1  0  0  0  0
 21 23  1  0  0  0  0
 23 24  1  0  0  0  0
  1 25  1  0  0  0  0
  1 26  1  0  0  0  0
  1 27  1  0  0  0  0
  3 28  1  0  0  0  0
  5 29  1  0  0  0  0
  6 30  1  0  0  0  0
  6 31  1  0  0  0  0
  7 32  1  0  0  0  0
  8 33  1  0  0  0  0
 10 34  1  0  0  0  0
 12 35  1  0  0  0  0
 13 36  1  0  0  0  0
 13 37  1  0  0  0  0
 14 38  1  0  0  0  0
 15 39  1  0  0  0  0
 16 40  1  0  0  0  0
 17 41  1  0  0  0  0
 18 42  1  0  0  0  0
 19 43  1  0  0  0  0
 20 44  1  0  0  0  0
 21 45  1  0  0  0  0
 22 46  1  0  0  0  0
 23 47  1  0  0  0  0
 24 48  1  0  0  0  0
M  END
