 xtb: 6.7.1 (edcfbbe)
          09212615503D

 48 49  0     0  0            999 V2000
    5.6849   -0.5676    0.0549 C   0  0  0  0  0  0  0  0  0  0  0  0
    4.8285    0.5114    0.4174 O   0  0  0  0  0  0  0  0  0  0  0  0
    3.6029    0.1372    0.9296 C   0  0  0  0  0  0  0  0  0  0  0  0
    2.7958   -0.3363   -0.1305 O   0  0  0  0  0  0  0  0  0  0  0  0
    1.4962   -0.7278    0.2764 C   0  0  0  0  0  0  0  0  0  0  0  0
    0.8470   -1.4056   -0.9301 C   0  0  0  0  0  0  0  0  0  0  0  0
    1.5687   -2.5271   -1.3572 O   0  0  0  0  0  0  0  0  0  0  0  0
    0.7250    0.4964    0.8003 C   0  0  0  0  0  0  0  0  0  0  0  0
   -0.5702    0.1226    1.2552 O   0  0  0  0  0  0  0  0  0  0  0  0
   -1.6502    0.9118    0.8096 C   0  0  0  0  0  0  0  0  0  0  0  0
   -1.7134    1.1276   -0.5672 O   0  0  0  0  0  0  0  0  0  0  0  0
   -2.2867    0.1253   -1.4108 C   0  0  0  0  0  0  0  0  0  0  0  0
   -2.6051    0.8368   -2.7400 C   0  0  0  0  0  0  0  0  0  0  0  0
   -3.0823   -0.0549   -3.7159 O   0  0  0  0  0  0  0  0  0  0  0  0
   -3.5510   -0.5325   -0.8357 C   0  0  0  0  0  0  0  0  0  0  0  0
   -3.8918   -1.6849   -1.5638 O   0  0  0  0  0  0  0  0  0  0  0  0
   -3.3090   -0.9472    0.6185 C   0  0  0  0  0  0  0  0  0  0  0  0
   -4.4638   -1.4941    1.2030 O   0  0  0  0  0  0  0  0  0  0  0  0
   -2.9349    0.3117    1.4003 C   0  0  0  0  0  0  0  0  0  0  0  0
   -2.7397    0.0715    2.7622 O   0  0  0  0  0  0  0  0  0  0  0  0
    1.5045    1.1514    1.9529 C   0  0  0  0  0  0  0  0  0  0  0  0
    0.9256    2.3636    2.3690 O   0  0  0  0  0  0  0  0  0  0  0  0
    2.9841    1.3734    1.5934 C   0  0  0  0  0  0  0  0  0  0  0  0
    3.7388    1.6522    2.7416 O   0  0  0  0  0  0  0  0  0  0  0  0
    5.2593   -1.1365   -0.7728 H   0  0  0  0  0  0  0  0  0  0  0  0
    5.8511   -1.2256    0.9120 H   0  0  0  0  0  0  0  0  0  0  0  0
    6.6184   -0.1027   -0.2487 H   0  0  0  0  0  0  0  0  0  0  0  0
    3.7115   -0.6613    1.6919 H   0  0  0  0  0  0  0  0  0  0  0  0
    1.5762   -1.4612    1.0952 H   0  0  0  0  0  0  0  0  0  0  0  0
    0.7592   -0.6690   -1.7386 H   0  0  0  0  0  0  0  0  0  0  0  0
   -0.1354   -1.7740   -0.6331 H   0  0  0  0  0  0  0  0  0  0  0  0
    2.4765   -2.2514   -1.5490 H   0  0  0  0  0  0  0  0  0  0  0  0
    0.6207    1.2147   -0.0258 H   0  0  0  0  0  0  0  0  0  0  0  0
   -1.5231    1.9268    1.2245 H   0  0  0  0  0  0  0  0  0  0  0  0
   -1.5613   -0.6778   -1.5900 H   0  0  0  0  0  0  0  0  0  0  0  0
   -1.7125    1.3727   -3.0734 H   0  0  0  0  0  0  0  0  0  0  0  0
   -3.3988    1.5674   -2.5662 H   0  0  0  0  0  0  0  0  0  0  0  0
   -2.3424   -0.5209   -4.1307 H   0  0  0  0  0  0  0  0  0  0  0  0
   -4.3842    0.1886   -0.8487 H   0  0  0  0  0  0  0  0  0  0  0  0
   -4.0163   -1.4316   -2.4959 H   0  0  0  0  0  0  0  0  0  0  0  0
   -2.4772   -1.6661    0.6676 H   0  0  0  0  0  0  0  0  0  0  0  0
   -4.7895   -2.2030    0.6279 H   0  0  0  0  0  0  0  0  0  0  0  0
   -3.7422    1.0506    1.2600 H   0  0  0  0  0  0  0  0  0  0  0  0
   -3.4577   -0.5095    3.0634 H   0  0  0  0  0  0  0  0  0  0  0  0
    1.4385    0.4912    2.8247 H   0  0  0  0  0  0  0  0  0  0  0  0
    0.9619    3.0098    1.6468 H   0  0  0  0  0  0  0  0  0  0  0  0
    3.0686    2.1979    0.8669 H   0  0  0  0  0  0  0  0  0  0  0  0
    3.2949    2.3559    3.2425 H   0  0  0  0  0  0  0  0  0  0  0  0
  1  2  1  0  0  0  0
  2  3  1  0  0  0  0
  3  4  1  0  0  0  0
  4  5  1  0  0  0  0
  5  6  1  0  0  0  0
  6  7  1  0  0  0  0
  5  8  1  0  0  0  0
  8  9  1  0  0  0  0
  9 10  1  0  0  0  0
 10 11  1  0  0  0  0
 11 12  1  0  0  0  0
 12 13  1  0  0  0  0
 13 14  1  0  0  0  0
 12 15  1  0  0  0  0
 15 16  1  0  0  0  0
 15 17  1  0  0  0  0
 17 18  1  0  0  0  0
 10 19  1  0  0  0  0
 17 19  1  0  0  0  0
 19 20  1  0  0  0  0
  8 21  1  0  0  0  0
 21 22  1  0  0  0  0
  3 23  1  0  0  0  0
 21 23  1  0  0  0  0
 23 24  1  0  0  0  0
  1 25  1  0  0  0  0
  1 26  1  0  0  0  0
  1 27  1  0  0  0  0
  3 28  1  0  0  0  0
  5 29  1  0  0  0  0
  6 30  1  0  0  0  0
  6 31  1  0  0  0  0
  7 32  1  0  0  0  0
  8 33  1  0  0  0  0
 10 34  1  0  0  0  0
 12 35  1  0  0  0  0
 13 36  1  0  0  0  0
 13 37  1  0  0  0  0
 14 38  1  0  0  0  0
 15 39  1  0  0  0  0
 16 40  1  0  0  0  0
 17 41  1  0  0  0  0
 18 42  1  0  0  0  0
 19 43  1  0  0  0  0
 20 44  1  0  0  0  0
 21 45  1  0  0  0  0
 22 46  1  0  0  0  0
 23 47  1  0  0  0  0
 24 48  1  0  0  0  0
M  END
