 xtb: 6.7.1 (edcfbbe)
          09222613173D

 48 49  0     0  0            999 V2000
    5.1421    2.8573   -0.7773 C   0  0  0  0  0  0  0  0  0  0  0  0
    4.6121    1.5623   -0.9838 O   0  0  0  0  0  0  0  0  0  0  0  0
    3.2367    1.4992   -0.9434 C   0  0  0  0  0  0  0  0  0  0  0  0
    2.8323    1.6516    0.4068 O   0  0  0  0  0  0  0  0  0  0  0  0
    1.4578    1.4735    0.6557 C   0  0  0  0  0  0  0  0  0  0  0  0
    1.2803    1.6862    2.1676 C   0  0  0  0  0  0  0  0  0  0  0  0
    2.0766    0.7961    2.8977 O   0  0  0  0  0  0  0  0  0  0  0  0
    0.9910    0.0575    0.2525 C   0  0  0  0  0  0  0  0  0  0  0  0
   -0.4014   -0.0252    0.5052 O   0  0  0  0  0  0  0  0  0  0  0  0
   -0.8812   -1.0980    1.2762 C   0  0  0  0  0  0  0  0  0  0  0  0
   -2.0281   -0.6480    1.9391 O   0  0  0  0  0  0  0  0  0  0  0  0
   -3.0605   -0.2573    1.0433 C   0  0  0  0  0  0  0  0  0  0  0  0
   -4.2317    0.2462    1.8984 C   0  0  0  0  0  0  0  0  0  0  0  0
   -5.2584    0.8036    1.1108 O   0  0  0  0  0  0  0  0  0  0  0  0
   -3.4990   -1.4218    0.1342 C   0  0  0  0  0  0  0  0  0  0  0  0
   -4.4052   -1.0027   -0.8549 O   0  0  0  0  0  0  0  0  0  0  0  0
   -2.2753   -2.0214   -0.5705 C   0  0  0  0  0  0  0  0  0  0  0  0
   -2.5987   -3.2001   -1.2693 O   0  0  0  0  0  0  0  0  0  0  0  0
   -1.2461   -2.3759    0.5002 C   0  0  0  0  0  0  0  0  0  0  0  0
   -0.1072   -3.0056   -0.0322 O   0  0  0  0  0  0  0  0  0  0  0  0
    1.2836   -0.0680   -1.2501 C   0  0  0  0  0  0  0  0  0  0  0  0
    0.8927   -1.2700   -1.8565 O   0  0  0  0  0  0  0  0  0  0  0  0
    2.7891    0.1463   -1.5038 C   0  0  0  0  0  0  0  0  0  0  0  0
    3.0371    0.1253   -2.8809 O   0  0  0  0  0  0  0  0  0  0  0  0
    4.8660    3.2437    0.2074 H   0  0  0  0  0  0  0  0  0  0  0  0
    4.7881    3.5479   -1.5508 H   0  0  0  0  0  0  0  0  0  0  0  0
    6.2221    2.7517   -0.8449 H   0  0  0  0  0  0  0  0  0  0  0  0
    2.7773    2.3053   -1.5532 H   0  0  0  0  0  0  0  0  0  0  0  0
    0.8581    2.2085    0.0988 H   0  0  0  0  0  0  0  0  0  0  0  0
    0.2431    1.4931    2.4465 H   0  0  0  0  0  0  0  0  0  0  0  0
    1.5371    2.7268    2.4095 H   0  0  0  0  0  0  0  0  0  0  0  0
    2.9737    0.8674    2.5450 H   0  0  0  0  0  0  0  0  0  0  0  0
    1.5402   -0.6979    0.8243 H   0  0  0  0  0  0  0  0  0  0  0  0
   -0.1582   -1.3492    2.0669 H   0  0  0  0  0  0  0  0  0  0  0  0
   -2.6958    0.5582    0.4003 H   0  0  0  0  0  0  0  0  0  0  0  0
   -3.8491    0.9632    2.6322 H   0  0  0  0  0  0  0  0  0  0  0  0
   -4.6803   -0.5916    2.4363 H   0  0  0  0  0  0  0  0  0  0  0  0
   -4.9454    1.6301    0.7242 H   0  0  0  0  0  0  0  0  0  0  0  0
   -3.9532   -2.2092    0.7607 H   0  0  0  0  0  0  0  0  0  0  0  0
   -5.1091   -0.4991   -0.4161 H   0  0  0  0  0  0  0  0  0  0  0  0
   -1.8523   -1.2745   -1.2587 H   0  0  0  0  0  0  0  0  0  0  0  0
   -3.3605   -3.0004   -1.8260 H   0  0  0  0  0  0  0  0  0  0  0  0
   -1.7217   -3.0504    1.2299 H   0  0  0  0  0  0  0  0  0  0  0  0
   -0.4369   -3.6866   -0.6372 H   0  0  0  0  0  0  0  0  0  0  0  0
    0.7361    0.7342   -1.7697 H   0  0  0  0  0  0  0  0  0  0  0  0
    0.7094   -1.9393   -1.1705 H   0  0  0  0  0  0  0  0  0  0  0  0
    3.3658   -0.6424   -0.9945 H   0  0  0  0  0  0  0  0  0  0  0  0
    2.5067   -0.6008   -3.2419 H   0  0  0  0  0  0  0  0  0  0  0  0
  1  2  1  0  0  0  0
  2  3  1  0  0  0  0
  3  4  1  0  0  0  0
  4  5  1  0  0  0  0
  5  6  1  0  0  0  0
  6  7  1  0  0  0  0
  5  8  1  0  0  0  0
  8  9  1  0  0  0  0
  9 10  1  0  0  0  0
 10 11  1  0  0  0  0
 11 12  1  0  0  0  0
 12 13  1  0  0  0  0
 13 14  1  0  0  0  0
 12 15  1  0  0  0  0
 15 16  1  0  0  0  0
 15 17  1  0  0  0  0
 17 18  1  0  0  0  0
 10 19  1  0  0  0  0
 17 19  1  0  0  0  0
 19 20  1  0  0  0  0
  8 21  1  0  0  0  0
 21 22  1  0  0  0  0
  3 23  1  0  0  0  0
 21 23  1  0  0  0  0
 23 24  1  0  0  0  0
  1 25  1  0  0  0  0
  1 26  1  0  0  0  0
  1 27  1  0  0  0  0
  3 28  1  0  0  0  0
  5 29  1  0  0  0  0
  6 30  1  0  0  0  0
  6 31  1  0  0  0  0
  7 32  1  0  0  0  0
  8 33  1  0  0  0  0
 10 34  1  0  0  0  0
 12 35  1  0  0  0  0
 13 36  1  0  0  0  0
 13 37  1  0  0  0  0
 14 38  1  0  0  0  0
 15 39  1  0  0  0  0
 16 40  1  0  0  0  0
 17 41  1  0  0  0  0
 18 42  1  0  0  0  0
 19 43  1  0  0  0  0
 20 44  1  0  0  0  0
 21 45  1  0  0  0  0
 22 46  1  0  0  0  0
 23 47  1  0  0  0  0
 24 48  1  0  0  0  0
M  END
