 xtb: 6.7.1 (edcfbbe)
          09212615403D

 48 49  0     0  0            999 V2000
    5.6695   -1.4024   -0.3206 C   0  0  0  0  0  0  0  0  0  0  0  0
    4.9608   -0.3294    0.2922 O   0  0  0  0  0  0  0  0  0  0  0  0
    3.6204   -0.5707    0.5138 C   0  0  0  0  0  0  0  0  0  0  0  0
    2.9420   -0.5226   -0.7273 O   0  0  0  0  0  0  0  0  0  0  0  0
    1.5392   -0.6688   -0.6285 C   0  0  0  0  0  0  0  0  0  0  0  0
    0.9916   -0.6849   -2.0630 C   0  0  0  0  0  0  0  0  0  0  0  0
    1.3308   -1.8556   -2.7521 O   0  0  0  0  0  0  0  0  0  0  0  0
    0.9187    0.4792    0.1968 C   0  0  0  0  0  0  0  0  0  0  0  0
   -0.4786    0.2615    0.2784 O   0  0  0  0  0  0  0  0  0  0  0  0
   -1.3568    1.3067   -0.0605 C   0  0  0  0  0  0  0  0  0  0  0  0
   -2.1696    0.9035   -1.1287 O   0  0  0  0  0  0  0  0  0  0  0  0
   -2.9504   -0.2605   -0.8452 C   0  0  0  0  0  0  0  0  0  0  0  0
   -3.8169   -0.5279   -2.0824 C   0  0  0  0  0  0  0  0  0  0  0  0
   -3.0608   -0.8928   -3.2059 O   0  0  0  0  0  0  0  0  0  0  0  0
   -3.8310   -0.0775    0.4026 C   0  0  0  0  0  0  0  0  0  0  0  0
   -4.4983   -1.2628    0.7504 O   0  0  0  0  0  0  0  0  0  0  0  0
   -3.0045    0.4597    1.5834 C   0  0  0  0  0  0  0  0  0  0  0  0
   -3.8267    0.8124    2.6697 O   0  0  0  0  0  0  0  0  0  0  0  0
   -2.2547    1.7102    1.1215 C   0  0  0  0  0  0  0  0  0  0  0  0
   -1.4810    2.3019    2.1218 O   0  0  0  0  0  0  0  0  0  0  0  0
    1.5625    0.4354    1.5936 C   0  0  0  0  0  0  0  0  0  0  0  0
    1.1209    1.4127    2.4943 O   0  0  0  0  0  0  0  0  0  0  0  0
    3.0978    0.5060    1.4711 C   0  0  0  0  0  0  0  0  0  0  0  0
    3.6916    0.2975    2.7230 O   0  0  0  0  0  0  0  0  0  0  0  0
    5.3003   -1.5796   -1.3317 H   0  0  0  0  0  0  0  0  0  0  0  0
    5.5708   -2.3129    0.2769 H   0  0  0  0  0  0  0  0  0  0  0  0
    6.7068   -1.0821   -0.3486 H   0  0  0  0  0  0  0  0  0  0  0  0
    3.4648   -1.5666    0.9781 H   0  0  0  0  0  0  0  0  0  0  0  0
    1.2936   -1.6221   -0.1369 H   0  0  0  0  0  0  0  0  0  0  0  0
    1.3672    0.2031   -2.5859 H   0  0  0  0  0  0  0  0  0  0  0  0
   -0.0983   -0.6554   -2.0291 H   0  0  0  0  0  0  0  0  0  0  0  0
    2.2944   -1.9081   -2.8226 H   0  0  0  0  0  0  0  0  0  0  0  0
    1.1352    1.4380   -0.2904 H   0  0  0  0  0  0  0  0  0  0  0  0
   -0.8072    2.1836   -0.4228 H   0  0  0  0  0  0  0  0  0  0  0  0
   -2.2673   -1.1072   -0.6847 H   0  0  0  0  0  0  0  0  0  0  0  0
   -4.4148    0.3682   -2.2865 H   0  0  0  0  0  0  0  0  0  0  0  0
   -4.4839   -1.3655   -1.8716 H   0  0  0  0  0  0  0  0  0  0  0  0
   -2.5029   -0.1443   -3.4586 H   0  0  0  0  0  0  0  0  0  0  0  0
   -4.6233    0.6480    0.1829 H   0  0  0  0  0  0  0  0  0  0  0  0
   -3.8560   -1.9772    0.8781 H   0  0  0  0  0  0  0  0  0  0  0  0
   -2.2631   -0.2930    1.8951 H   0  0  0  0  0  0  0  0  0  0  0  0
   -4.4809    0.1104    2.8069 H   0  0  0  0  0  0  0  0  0  0  0  0
   -2.9911    2.4343    0.7335 H   0  0  0  0  0  0  0  0  0  0  0  0
   -2.0097    2.3321    2.9345 H   0  0  0  0  0  0  0  0  0  0  0  0
    1.2980   -0.5206    2.0625 H   0  0  0  0  0  0  0  0  0  0  0  0
    1.0511    2.2775    2.0670 H   0  0  0  0  0  0  0  0  0  0  0  0
    3.3977    1.4836    1.0611 H   0  0  0  0  0  0  0  0  0  0  0  0
    3.2022    0.8248    3.3778 H   0  0  0  0  0  0  0  0  0  0  0  0
  1  2  1  0  0  0  0
  2  3  1  0  0  0  0
  3  4  1  0  0  0  0
  4  5  1  0  0  0  0
  5  6  1  0  0  0  0
  6  7  1  0  0  0  0
  5  8  1  0  0  0  0
  8  9  1  0  0  0  0
  9 10  1  0  0  0  0
 10 11  1  0  0  0  0
 11 12  1  0  0  0  0
 12 13  1  0  0  0  0
 13 14  1  0  0  0  0
 12 15  1  0  0  0  0
 15 16  1  0  0  0  0
 15 17  1  0  0  0  0
 17 18  1  0  0  0  0
 10 19  1  0  0  0  0
 17 19  1  0  0  0  0
 19 20  1  0  0  0  0
  8 21  1  0  0  0  0
 21 22  1  0  0  0  0
  3 23  1  0  0  0  0
 21 23  1  0  0  0  0
 23 24  1  0  0  0  0
  1 25  1  0  0  0  0
  1 26  1  0  0  0  0
  1 27  1  0  0  0  0
  3 28  1  0  0  0  0
  5 29  1  0  0  0  0
  6 30  1  0  0  0  0
  6 31  1  0  0  0  0
  7 32  1  0  0  0  0
  8 33  1  0  0  0  0
 10 34  1  0  0  0  0
 12 35  1  0  0  0  0
 13 36  1  0  0  0  0
 13 37  1  0  0  0  0
 14 38  1  0  0  0  0
 15 39  1  0  0  0  0
 16 40  1  0  0  0  0
 17 41  1  0  0  0  0
 18 42  1  0  0  0  0
 19 43  1  0  0  0  0
 20 44  1  0  0  0  0
 21 45  1  0  0  0  0
 22 46  1  0  0  0  0
 23 47  1  0  0  0  0
 24 48  1  0  0  0  0
M  END
