 xtb: 6.7.1 (edcfbbe)
          09212615403D

 48 49  0     0  0            999 V2000
    4.9596    2.7961   -1.0325 C   0  0  0  0  0  0  0  0  0  0  0  0
    4.5574    1.4359   -1.1716 O   0  0  0  0  0  0  0  0  0  0  0  0
    3.2064    1.2047   -0.9921 C   0  0  0  0  0  0  0  0  0  0  0  0
    2.8571    1.4173    0.3591 O   0  0  0  0  0  0  0  0  0  0  0  0
    1.4879    1.1799    0.6132 C   0  0  0  0  0  0  0  0  0  0  0  0
    1.2314    1.5197    2.0888 C   0  0  0  0  0  0  0  0  0  0  0  0
    1.2850    2.8960    2.3452 O   0  0  0  0  0  0  0  0  0  0  0  0
    1.0664   -0.2772    0.3124 C   0  0  0  0  0  0  0  0  0  0  0  0
   -0.3404   -0.3069    0.4727 O   0  0  0  0  0  0  0  0  0  0  0  0
   -0.9418   -1.2806    1.2915 C   0  0  0  0  0  0  0  0  0  0  0  0
   -1.9702   -0.6351    1.9960 O   0  0  0  0  0  0  0  0  0  0  0  0
   -2.9518   -0.0600    1.1350 C   0  0  0  0  0  0  0  0  0  0  0  0
   -3.9982    0.6055    2.0427 C   0  0  0  0  0  0  0  0  0  0  0  0
   -4.9379    1.3494    1.3071 O   0  0  0  0  0  0  0  0  0  0  0  0
   -3.6008   -1.1092    0.2133 C   0  0  0  0  0  0  0  0  0  0  0  0
   -4.4061   -0.5044   -0.7681 O   0  0  0  0  0  0  0  0  0  0  0  0
   -2.5233   -1.9338   -0.5063 C   0  0  0  0  0  0  0  0  0  0  0  0
   -3.0805   -3.0224   -1.2000 O   0  0  0  0  0  0  0  0  0  0  0  0
   -1.5614   -2.4793    0.5504 C   0  0  0  0  0  0  0  0  0  0  0  0
   -0.5748   -3.3242    0.0436 O   0  0  0  0  0  0  0  0  0  0  0  0
    1.4631   -0.6128   -1.1363 C   0  0  0  0  0  0  0  0  0  0  0  0
    1.2549   -1.9704   -1.3947 O   0  0  0  0  0  0  0  0  0  0  0  0
    2.9357   -0.2529   -1.3827 C   0  0  0  0  0  0  0  0  0  0  0  0
    3.1941   -0.4773   -2.7434 O   0  0  0  0  0  0  0  0  0  0  0  0
    4.8225    3.1335   -0.0052 H   0  0  0  0  0  0  0  0  0  0  0  0
    4.3856    3.4324   -1.7116 H   0  0  0  0  0  0  0  0  0  0  0  0
    6.0127    2.8133   -1.2974 H   0  0  0  0  0  0  0  0  0  0  0  0
    2.5996    1.8806   -1.6327 H   0  0  0  0  0  0  0  0  0  0  0  0
    0.8735    1.8379   -0.0207 H   0  0  0  0  0  0  0  0  0  0  0  0
    1.9613    0.9755    2.6998 H   0  0  0  0  0  0  0  0  0  0  0  0
    0.2226    1.1968    2.3525 H   0  0  0  0  0  0  0  0  0  0  0  0
    2.1825    3.2119    2.1698 H   0  0  0  0  0  0  0  0  0  0  0  0
    1.5532   -0.9815    0.9942 H   0  0  0  0  0  0  0  0  0  0  0  0
   -0.2316   -1.6470    2.0438 H   0  0  0  0  0  0  0  0  0  0  0  0
   -2.4709    0.6958    0.4981 H   0  0  0  0  0  0  0  0  0  0  0  0
   -3.4763    1.2195    2.7819 H   0  0  0  0  0  0  0  0  0  0  0  0
   -4.5569   -0.1696    2.5720 H   0  0  0  0  0  0  0  0  0  0  0  0
   -4.5440    2.1890    1.0296 H   0  0  0  0  0  0  0  0  0  0  0  0
   -4.2000   -1.8035    0.8258 H   0  0  0  0  0  0  0  0  0  0  0  0
   -5.0335    0.0937   -0.3238 H   0  0  0  0  0  0  0  0  0  0  0  0
   -1.9666   -1.2825   -1.1957 H   0  0  0  0  0  0  0  0  0  0  0  0
   -3.7629   -2.6842   -1.7984 H   0  0  0  0  0  0  0  0  0  0  0  0
   -2.1584   -3.0199    1.3075 H   0  0  0  0  0  0  0  0  0  0  0  0
   -0.9956   -3.9179   -0.5983 H   0  0  0  0  0  0  0  0  0  0  0  0
    0.8399    0.0016   -1.8080 H   0  0  0  0  0  0  0  0  0  0  0  0
    1.6394   -2.1712   -2.2633 H   0  0  0  0  0  0  0  0  0  0  0  0
    3.5695   -0.8913   -0.7499 H   0  0  0  0  0  0  0  0  0  0  0  0
    4.1224   -0.2709   -2.9297 H   0  0  0  0  0  0  0  0  0  0  0  0
  1  2  1  0  0  0  0
  2  3  1  0  0  0  0
  3  4  1  0  0  0  0
  4  5  1  0  0  0  0
  5  6  1  0  0  0  0
  6  7  1  0  0  0  0
  5  8  1  0  0  0  0
  8  9  1  0  0  0  0
  9 10  1  0  0  0  0
 10 11  1  0  0  0  0
 11 12  1  0  0  0  0
 12 13  1  0  0  0  0
 13 14  1  0  0  0  0
 12 15  1  0  0  0  0
 15 16  1  0  0  0  0
 15 17  1  0  0  0  0
 17 18  1  0  0  0  0
 10 19  1  0  0  0  0
 17 19  1  0  0  0  0
 19 20  1  0  0  0  0
  8 21  1  0  0  0  0
 21 22  1  0  0  0  0
  3 23  1  0  0  0  0
 21 23  1  0  0  0  0
 23 24  1  0  0  0  0
  1 25  1  0  0  0  0
  1 26  1  0  0  0  0
  1 27  1  0  0  0  0
  3 28  1  0  0  0  0
  5 29  1  0  0  0  0
  6 30  1  0  0  0  0
  6 31  1  0  0  0  0
  7 32  1  0  0  0  0
  8 33  1  0  0  0  0
 10 34  1  0  0  0  0
 12 35  1  0  0  0  0
 13 36  1  0  0  0  0
 13 37  1  0  0  0  0
 14 38  1  0  0  0  0
 15 39  1  0  0  0  0
 16 40  1  0  0  0  0
 17 41  1  0  0  0  0
 18 42  1  0  0  0  0
 19 43  1  0  0  0  0
 20 44  1  0  0  0  0
 21 45  1  0  0  0  0
 22 46  1  0  0  0  0
 23 47  1  0  0  0  0
 24 48  1  0  0  0  0
M  END
