 xtb: 6.7.1 (edcfbbe)
          09212615493D

 48 49  0     0  0            999 V2000
    5.8684   -0.1137   -0.5842 C   0  0  0  0  0  0  0  0  0  0  0  0
    4.6747    0.5442   -0.9976 O   0  0  0  0  0  0  0  0  0  0  0  0
    3.6899    0.6228   -0.0330 C   0  0  0  0  0  0  0  0  0  0  0  0
    3.1286   -0.6625    0.1459 O   0  0  0  0  0  0  0  0  0  0  0  0
    2.0694   -0.7032    1.0891 C   0  0  0  0  0  0  0  0  0  0  0  0
    1.7054   -2.1736    1.2930 C   0  0  0  0  0  0  0  0  0  0  0  0
    2.7755   -2.9005    1.8364 O   0  0  0  0  0  0  0  0  0  0  0  0
    0.9123    0.1725    0.5778 C   0  0  0  0  0  0  0  0  0  0  0  0
   -0.2016    0.1524    1.4630 O   0  0  0  0  0  0  0  0  0  0  0  0
   -1.4859   -0.0526    0.9409 C   0  0  0  0  0  0  0  0  0  0  0  0
   -1.5368    0.2641   -0.4296 O   0  0  0  0  0  0  0  0  0  0  0  0
   -2.8612    0.4966   -0.9057 C   0  0  0  0  0  0  0  0  0  0  0  0
   -3.1773    2.0072   -0.9445 C   0  0  0  0  0  0  0  0  0  0  0  0
   -4.4483    2.2407   -1.5027 O   0  0  0  0  0  0  0  0  0  0  0  0
   -3.9304   -0.2449   -0.0804 C   0  0  0  0  0  0  0  0  0  0  0  0
   -5.0811   -0.4928   -0.8481 O   0  0  0  0  0  0  0  0  0  0  0  0
   -3.3892   -1.6044    0.3807 C   0  0  0  0  0  0  0  0  0  0  0  0
   -4.3083   -2.2564    1.2185 O   0  0  0  0  0  0  0  0  0  0  0  0
   -2.0491   -1.4794    1.1430 C   0  0  0  0  0  0  0  0  0  0  0  0
   -1.1241   -2.4230    0.6728 O   0  0  0  0  0  0  0  0  0  0  0  0
    1.3951    1.6117    0.3816 C   0  0  0  0  0  0  0  0  0  0  0  0
    0.3948    2.4380   -0.1668 O   0  0  0  0  0  0  0  0  0  0  0  0
    2.6440    1.6341   -0.5194 C   0  0  0  0  0  0  0  0  0  0  0  0
    3.2419    2.9022   -0.5091 O   0  0  0  0  0  0  0  0  0  0  0  0
    5.6751   -1.1668   -0.3764 H   0  0  0  0  0  0  0  0  0  0  0  0
    6.2809    0.3709    0.3049 H   0  0  0  0  0  0  0  0  0  0  0  0
    6.5548   -0.0137   -1.4199 H   0  0  0  0  0  0  0  0  0  0  0  0
    4.1045    0.9782    0.9337 H   0  0  0  0  0  0  0  0  0  0  0  0
    2.4253   -0.2928    2.0488 H   0  0  0  0  0  0  0  0  0  0  0  0
    1.3810   -2.5979    0.3378 H   0  0  0  0  0  0  0  0  0  0  0  0
    0.8887   -2.2344    2.0100 H   0  0  0  0  0  0  0  0  0  0  0  0
    3.5211   -2.8477    1.2219 H   0  0  0  0  0  0  0  0  0  0  0  0
    0.6076   -0.2357   -0.3943 H   0  0  0  0  0  0  0  0  0  0  0  0
   -2.1202    0.6383    1.5195 H   0  0  0  0  0  0  0  0  0  0  0  0
   -2.8757    0.0884   -1.9239 H   0  0  0  0  0  0  0  0  0  0  0  0
   -2.3903    2.5359   -1.4886 H   0  0  0  0  0  0  0  0  0  0  0  0
   -3.2053    2.3979    0.0764 H   0  0  0  0  0  0  0  0  0  0  0  0
   -4.3839    2.2488   -2.4680 H   0  0  0  0  0  0  0  0  0  0  0  0
   -4.1984    0.3448    0.8088 H   0  0  0  0  0  0  0  0  0  0  0  0
   -5.4695    0.3623   -1.0998 H   0  0  0  0  0  0  0  0  0  0  0  0
   -3.2075   -2.2032   -0.5265 H   0  0  0  0  0  0  0  0  0  0  0  0
   -5.1712   -2.2661    0.7755 H   0  0  0  0  0  0  0  0  0  0  0  0
   -2.2450   -1.6217    2.2144 H   0  0  0  0  0  0  0  0  0  0  0  0
   -1.4752   -3.3102    0.8431 H   0  0  0  0  0  0  0  0  0  0  0  0
    1.6529    2.0475    1.3547 H   0  0  0  0  0  0  0  0  0  0  0  0
   -0.1814    1.8910   -0.7237 H   0  0  0  0  0  0  0  0  0  0  0  0
    2.3653    1.3466   -1.5448 H   0  0  0  0  0  0  0  0  0  0  0  0
    2.5596    3.5599   -0.7217 H   0  0  0  0  0  0  0  0  0  0  0  0
  1  2  1  0  0  0  0
  2  3  1  0  0  0  0
  3  4  1  0  0  0  0
  4  5  1  0  0  0  0
  5  6  1  0  0  0  0
  6  7  1  0  0  0  0
  5  8  1  0  0  0  0
  8  9  1  0  0  0  0
  9 10  1  0  0  0  0
 10 11  1  0  0  0  0
 11 12  1  0  0  0  0
 12 13  1  0  0  0  0
 13 14  1  0  0  0  0
 12 15  1  0  0  0  0
 15 16  1  0  0  0  0
 15 17  1  0  0  0  0
 17 18  1  0  0  0  0
 10 19  1  0  0  0  0
 17 19  1  0  0  0  0
 19 20  1  0  0  0  0
  8 21  1  0  0  0  0
 21 22  1  0  0  0  0
  3 23  1  0  0  0  0
 21 23  1  0  0  0  0
 23 24  1  0  0  0  0
  1 25  1  0  0  0  0
  1 26  1  0  0  0  0
  1 27  1  0  0  0  0
  3 28  1  0  0  0  0
  5 29  1  0  0  0  0
  6 30  1  0  0  0  0
  6 31  1  0  0  0  0
  7 32  1  0  0  0  0
  8 33  1  0  0  0  0
 10 34  1  0  0  0  0
 12 35  1  0  0  0  0
 13 36  1  0  0  0  0
 13 37  1  0  0  0  0
 14 38  1  0  0  0  0
 15 39  1  0  0  0  0
 16 40  1  0  0  0  0
 17 41  1  0  0  0  0
 18 42  1  0  0  0  0
 19 43  1  0  0  0  0
 20 44  1  0  0  0  0
 21 45  1  0  0  0  0
 22 46  1  0  0  0  0
 23 47  1  0  0  0  0
 24 48  1  0  0  0  0
M  END
