 xtb: 6.7.1 (edcfbbe)
          09212615513D

 48 49  0     0  0            999 V2000
    5.7301   -0.7162    0.0864 C   0  0  0  0  0  0  0  0  0  0  0  0
    4.8882    0.3791    0.4345 O   0  0  0  0  0  0  0  0  0  0  0  0
    3.6363    0.0272    0.8960 C   0  0  0  0  0  0  0  0  0  0  0  0
    2.8393   -0.3517   -0.2093 O   0  0  0  0  0  0  0  0  0  0  0  0
    1.5210   -0.7275    0.1477 C   0  0  0  0  0  0  0  0  0  0  0  0
    0.8688   -1.2981   -1.1135 C   0  0  0  0  0  0  0  0  0  0  0  0
    1.6252   -2.3307   -1.6808 O   0  0  0  0  0  0  0  0  0  0  0  0
    0.7759    0.4848    0.7329 C   0  0  0  0  0  0  0  0  0  0  0  0
   -0.5409    0.1273    1.1408 O   0  0  0  0  0  0  0  0  0  0  0  0
   -1.5706    0.9839    0.7121 C   0  0  0  0  0  0  0  0  0  0  0  0
   -1.7032    1.0963   -0.6745 O   0  0  0  0  0  0  0  0  0  0  0  0
   -2.3705    0.0511   -1.3830 C   0  0  0  0  0  0  0  0  0  0  0  0
   -2.6463    0.6116   -2.7902 C   0  0  0  0  0  0  0  0  0  0  0  0
   -3.1921   -0.3575   -3.6491 O   0  0  0  0  0  0  0  0  0  0  0  0
   -3.6727   -0.4117   -0.7124 C   0  0  0  0  0  0  0  0  0  0  0  0
   -4.1652   -1.5813   -1.3155 O   0  0  0  0  0  0  0  0  0  0  0  0
   -3.4041   -0.7209    0.7635 C   0  0  0  0  0  0  0  0  0  0  0  0
   -4.5767   -1.0933    1.4424 O   0  0  0  0  0  0  0  0  0  0  0  0
   -2.8671    0.5528    1.4161 C   0  0  0  0  0  0  0  0  0  0  0  0
   -2.6102    0.3998    2.7808 O   0  0  0  0  0  0  0  0  0  0  0  0
    1.5520    1.0462    1.9367 C   0  0  0  0  0  0  0  0  0  0  0  0
    1.0023    2.2482    2.4164 O   0  0  0  0  0  0  0  0  0  0  0  0
    3.0432    1.2456    1.6133 C   0  0  0  0  0  0  0  0  0  0  0  0
    3.7848    1.4437    2.7864 O   0  0  0  0  0  0  0  0  0  0  0  0
    5.3011   -1.2883   -0.7374 H   0  0  0  0  0  0  0  0  0  0  0  0
    5.8812   -1.3677    0.9514 H   0  0  0  0  0  0  0  0  0  0  0  0
    6.6722   -0.2687   -0.2158 H   0  0  0  0  0  0  0  0  0  0  0  0
    3.6935   -0.8164    1.6134 H   0  0  0  0  0  0  0  0  0  0  0  0
    1.5652   -1.5147    0.9176 H   0  0  0  0  0  0  0  0  0  0  0  0
    0.7166   -0.4843   -1.8340 H   0  0  0  0  0  0  0  0  0  0  0  0
   -0.0862   -1.7430   -0.8335 H   0  0  0  0  0  0  0  0  0  0  0  0
    2.5168   -1.9946   -1.8521 H   0  0  0  0  0  0  0  0  0  0  0  0
    0.7120    1.2533   -0.0512 H   0  0  0  0  0  0  0  0  0  0  0  0
   -1.3315    2.0097    1.0363 H   0  0  0  0  0  0  0  0  0  0  0  0
   -1.7209   -0.8302   -1.4598 H   0  0  0  0  0  0  0  0  0  0  0  0
   -1.7190    1.0354   -3.1856 H   0  0  0  0  0  0  0  0  0  0  0  0
   -3.3844    1.4133   -2.7129 H   0  0  0  0  0  0  0  0  0  0  0  0
   -2.4942   -0.9494   -3.9643 H   0  0  0  0  0  0  0  0  0  0  0  0
   -4.4242    0.3927   -0.7642 H   0  0  0  0  0  0  0  0  0  0  0  0
   -4.2697   -1.4141   -2.2697 H   0  0  0  0  0  0  0  0  0  0  0  0
   -2.6466   -1.5154    0.8408 H   0  0  0  0  0  0  0  0  0  0  0  0
   -5.0046   -1.8048    0.9423 H   0  0  0  0  0  0  0  0  0  0  0  0
   -3.6114    1.3521    1.2596 H   0  0  0  0  0  0  0  0  0  0  0  0
   -3.3578   -0.0832    3.1700 H   0  0  0  0  0  0  0  0  0  0  0  0
    1.4511    0.3379    2.7661 H   0  0  0  0  0  0  0  0  0  0  0  0
    1.0818    2.9383    1.7399 H   0  0  0  0  0  0  0  0  0  0  0  0
    3.1627    2.1036    0.9316 H   0  0  0  0  0  0  0  0  0  0  0  0
    3.3486    2.1297    3.3175 H   0  0  0  0  0  0  0  0  0  0  0  0
  1  2  1  0  0  0  0
  2  3  1  0  0  0  0
  3  4  1  0  0  0  0
  4  5  1  0  0  0  0
  5  6  1  0  0  0  0
  6  7  1  0  0  0  0
  5  8  1  0  0  0  0
  8  9  1  0  0  0  0
  9 10  1  0  0  0  0
 10 11  1  0  0  0  0
 11 12  1  0  0  0  0
 12 13  1  0  0  0  0
 13 14  1  0  0  0  0
 12 15  1  0  0  0  0
 15 16  1  0  0  0  0
 15 17  1  0  0  0  0
 17 18  1  0  0  0  0
 10 19  1  0  0  0  0
 17 19  1  0  0  0  0
 19 20  1  0  0  0  0
  8 21  1  0  0  0  0
 21 22  1  0  0  0  0
  3 23  1  0  0  0  0
 21 23  1  0  0  0  0
 23 24  1  0  0  0  0
  1 25  1  0  0  0  0
  1 26  1  0  0  0  0
  1 27  1  0  0  0  0
  3 28  1  0  0  0  0
  5 29  1  0  0  0  0
  6 30  1  0  0  0  0
  6 31  1  0  0  0  0
  7 32  1  0  0  0  0
  8 33  1  0  0  0  0
 10 34  1  0  0  0  0
 12 35  1  0  0  0  0
 13 36  1  0  0  0  0
 13 37  1  0  0  0  0
 14 38  1  0  0  0  0
 15 39  1  0  0  0  0
 16 40  1  0  0  0  0
 17 41  1  0  0  0  0
 18 42  1  0  0  0  0
 19 43  1  0  0  0  0
 20 44  1  0  0  0  0
 21 45  1  0  0  0  0
 22 46  1  0  0  0  0
 23 47  1  0  0  0  0
 24 48  1  0  0  0  0
M  END
