 xtb: 6.7.1 (edcfbbe)
          09222613073D

 48 49  0     0  0            999 V2000
    5.9478    0.5633   -0.0019 C   0  0  0  0  0  0  0  0  0  0  0  0
    4.7331    1.0277   -0.5771 O   0  0  0  0  0  0  0  0  0  0  0  0
    3.6442    0.9947    0.2681 C   0  0  0  0  0  0  0  0  0  0  0  0
    3.2580   -0.3540    0.4528 O   0  0  0  0  0  0  0  0  0  0  0  0
    2.1070   -0.5278    1.2571 C   0  0  0  0  0  0  0  0  0  0  0  0
    1.9006   -2.0369    1.4268 C   0  0  0  0  0  0  0  0  0  0  0  0
    2.9264   -2.6331    2.1706 O   0  0  0  0  0  0  0  0  0  0  0  0
    0.9034    0.1562    0.5960 C   0  0  0  0  0  0  0  0  0  0  0  0
   -0.2423    0.0434    1.4383 O   0  0  0  0  0  0  0  0  0  0  0  0
   -1.4503   -0.4051    0.9183 C   0  0  0  0  0  0  0  0  0  0  0  0
   -2.1444    0.7370    0.4375 O   0  0  0  0  0  0  0  0  0  0  0  0
   -3.1619    0.4911   -0.5254 C   0  0  0  0  0  0  0  0  0  0  0  0
   -4.1257    1.6892   -0.4465 C   0  0  0  0  0  0  0  0  0  0  0  0
   -5.1194    1.6454   -1.4411 O   0  0  0  0  0  0  0  0  0  0  0  0
   -3.8986   -0.8285   -0.2382 C   0  0  0  0  0  0  0  0  0  0  0  0
   -4.8724   -1.1014   -1.2116 O   0  0  0  0  0  0  0  0  0  0  0  0
   -2.9183   -2.0245   -0.2148 C   0  0  0  0  0  0  0  0  0  0  0  0
   -3.1544   -2.8837    0.8698 O   0  0  0  0  0  0  0  0  0  0  0  0
   -1.4552   -1.5538   -0.0989 C   0  0  0  0  0  0  0  0  0  0  0  0
   -0.9284   -1.1494   -1.3358 O   0  0  0  0  0  0  0  0  0  0  0  0
    1.2117    1.6460    0.3970 C   0  0  0  0  0  0  0  0  0  0  0  0
    0.1927    2.2942   -0.3219 O   0  0  0  0  0  0  0  0  0  0  0  0
    2.5246    1.8265   -0.3738 C   0  0  0  0  0  0  0  0  0  0  0  0
    2.9325    3.1675   -0.3609 O   0  0  0  0  0  0  0  0  0  0  0  0
    5.8808   -0.4981    0.2445 H   0  0  0  0  0  0  0  0  0  0  0  0
    6.1892    1.1364    0.8986 H   0  0  0  0  0  0  0  0  0  0  0  0
    6.7090    0.7234   -0.7609 H   0  0  0  0  0  0  0  0  0  0  0  0
    3.8886    1.4413    1.2567 H   0  0  0  0  0  0  0  0  0  0  0  0
    2.2701   -0.0728    2.2477 H   0  0  0  0  0  0  0  0  0  0  0  0
    1.8274   -2.4916    0.4301 H   0  0  0  0  0  0  0  0  0  0  0  0
    0.9761   -2.2058    1.9820 H   0  0  0  0  0  0  0  0  0  0  0  0
    3.7653   -2.4436    1.7300 H   0  0  0  0  0  0  0  0  0  0  0  0
    0.7217   -0.2939   -0.3830 H   0  0  0  0  0  0  0  0  0  0  0  0
   -1.9802   -0.7888    1.8089 H   0  0  0  0  0  0  0  0  0  0  0  0
   -2.7190    0.4346   -1.5317 H   0  0  0  0  0  0  0  0  0  0  0  0
   -3.5389    2.6112   -0.4975 H   0  0  0  0  0  0  0  0  0  0  0  0
   -4.6459    1.6664    0.5144 H   0  0  0  0  0  0  0  0  0  0  0  0
   -4.7373    1.8918   -2.2938 H   0  0  0  0  0  0  0  0  0  0  0  0
   -4.3605   -0.7461    0.7612 H   0  0  0  0  0  0  0  0  0  0  0  0
   -5.3891   -0.2898   -1.3650 H   0  0  0  0  0  0  0  0  0  0  0  0
   -3.0434   -2.5597   -1.1689 H   0  0  0  0  0  0  0  0  0  0  0  0
   -4.0389   -3.2651    0.7861 H   0  0  0  0  0  0  0  0  0  0  0  0
   -0.8706   -2.3783    0.3336 H   0  0  0  0  0  0  0  0  0  0  0  0
   -0.9665   -1.8868   -1.9612 H   0  0  0  0  0  0  0  0  0  0  0  0
    1.3203    2.1103    1.3929 H   0  0  0  0  0  0  0  0  0  0  0  0
   -0.6631    1.9533   -0.0028 H   0  0  0  0  0  0  0  0  0  0  0  0
    2.3880    1.4689   -1.4054 H   0  0  0  0  0  0  0  0  0  0  0  0
    2.2058    3.6987   -0.7175 H   0  0  0  0  0  0  0  0  0  0  0  0
  1  2  1  0  0  0  0
  2  3  1  0  0  0  0
  3  4  1  0  0  0  0
  4  5  1  0  0  0  0
  5  6  1  0  0  0  0
  6  7  1  0  0  0  0
  5  8  1  0  0  0  0
  8  9  1  0  0  0  0
  9 10  1  0  0  0  0
 10 11  1  0  0  0  0
 11 12  1  0  0  0  0
 12 13  1  0  0  0  0
 13 14  1  0  0  0  0
 12 15  1  0  0  0  0
 15 16  1  0  0  0  0
 15 17  1  0  0  0  0
 17 18  1  0  0  0  0
 10 19  1  0  0  0  0
 17 19  1  0  0  0  0
 19 20  1  0  0  0  0
  8 21  1  0  0  0  0
 21 22  1  0  0  0  0
  3 23  1  0  0  0  0
 21 23  1  0  0  0  0
 23 24  1  0  0  0  0
  1 25  1  0  0  0  0
  1 26  1  0  0  0  0
  1 27  1  0  0  0  0
  3 28  1  0  0  0  0
  5 29  1  0  0  0  0
  6 30  1  0  0  0  0
  6 31  1  0  0  0  0
  7 32  1  0  0  0  0
  8 33  1  0  0  0  0
 10 34  1  0  0  0  0
 12 35  1  0  0  0  0
 13 36  1  0  0  0  0
 13 37  1  0  0  0  0
 14 38  1  0  0  0  0
 15 39  1  0  0  0  0
 16 40  1  0  0  0  0
 17 41  1  0  0  0  0
 18 42  1  0  0  0  0
 19 43  1  0  0  0  0
 20 44  1  0  0  0  0
 21 45  1  0  0  0  0
 22 46  1  0  0  0  0
 23 47  1  0  0  0  0
 24 48  1  0  0  0  0
M  END
