 xtb: 6.7.1 (edcfbbe)
          09212615353D

 48 49  0     0  0            999 V2000
    5.5648    0.5430   -1.1836 C   0  0  0  0  0  0  0  0  0  0  0  0
    4.7745    1.2748   -0.2502 O   0  0  0  0  0  0  0  0  0  0  0  0
    3.6359    0.6186    0.1728 C   0  0  0  0  0  0  0  0  0  0  0  0
    2.7237    0.5681   -0.9062 O   0  0  0  0  0  0  0  0  0  0  0  0
    1.4889   -0.0439   -0.5925 C   0  0  0  0  0  0  0  0  0  0  0  0
    0.6965   -0.1822   -1.9081 C   0  0  0  0  0  0  0  0  0  0  0  0
    0.3825   -1.5162   -2.2073 O   0  0  0  0  0  0  0  0  0  0  0  0
    0.7505    0.7723    0.4886 C   0  0  0  0  0  0  0  0  0  0  0  0
   -0.4576    0.1199    0.8538 O   0  0  0  0  0  0  0  0  0  0  0  0
   -1.6656    0.8043    0.6760 C   0  0  0  0  0  0  0  0  0  0  0  0
   -2.2420    0.5946   -0.5836 O   0  0  0  0  0  0  0  0  0  0  0  0
   -2.6063   -0.7596   -0.8772 C   0  0  0  0  0  0  0  0  0  0  0  0
   -3.3870   -0.7219   -2.2001 C   0  0  0  0  0  0  0  0  0  0  0  0
   -2.6350   -0.2273   -3.2743 O   0  0  0  0  0  0  0  0  0  0  0  0
   -3.4715   -1.3942    0.2219 C   0  0  0  0  0  0  0  0  0  0  0  0
   -3.6732   -2.7652   -0.0052 O   0  0  0  0  0  0  0  0  0  0  0  0
   -2.8679   -1.1471    1.6136 C   0  0  0  0  0  0  0  0  0  0  0  0
   -3.7388   -1.5763    2.6332 O   0  0  0  0  0  0  0  0  0  0  0  0
   -2.6347    0.3553    1.7818 C   0  0  0  0  0  0  0  0  0  0  0  0
   -2.0970    0.6951    3.0256 O   0  0  0  0  0  0  0  0  0  0  0  0
    1.6505    0.8851    1.7317 C   0  0  0  0  0  0  0  0  0  0  0  0
    1.1049    1.6833    2.7479 O   0  0  0  0  0  0  0  0  0  0  0  0
    3.0553    1.3955    1.3601 C   0  0  0  0  0  0  0  0  0  0  0  0
    3.9353    1.2416    2.4406 O   0  0  0  0  0  0  0  0  0  0  0  0
    4.9968    0.3475   -2.0947 H   0  0  0  0  0  0  0  0  0  0  0  0
    5.8967   -0.4001   -0.7406 H   0  0  0  0  0  0  0  0  0  0  0  0
    6.4182    1.1791   -1.3984 H   0  0  0  0  0  0  0  0  0  0  0  0
    3.8700   -0.4150    0.5038 H   0  0  0  0  0  0  0  0  0  0  0  0
    1.6656   -1.0495   -0.1771 H   0  0  0  0  0  0  0  0  0  0  0  0
    1.2852    0.2865   -2.7018 H   0  0  0  0  0  0  0  0  0  0  0  0
   -0.2549    0.3433   -1.8240 H   0  0  0  0  0  0  0  0  0  0  0  0
    1.1608   -1.9681   -2.5624 H   0  0  0  0  0  0  0  0  0  0  0  0
    0.5388    1.7743    0.0922 H   0  0  0  0  0  0  0  0  0  0  0  0
   -1.5163    1.8900    0.7395 H   0  0  0  0  0  0  0  0  0  0  0  0
   -1.6905   -1.3531   -1.0059 H   0  0  0  0  0  0  0  0  0  0  0  0
   -4.2903   -0.1171   -2.0503 H   0  0  0  0  0  0  0  0  0  0  0  0
   -3.6759   -1.7397   -2.4660 H   0  0  0  0  0  0  0  0  0  0  0  0
   -2.4036    0.6927   -3.0866 H   0  0  0  0  0  0  0  0  0  0  0  0
   -4.4731   -0.9473    0.2052 H   0  0  0  0  0  0  0  0  0  0  0  0
   -2.8186   -3.2060   -0.1263 H   0  0  0  0  0  0  0  0  0  0  0  0
   -1.8970   -1.6586    1.7004 H   0  0  0  0  0  0  0  0  0  0  0  0
   -4.0818   -2.4524    2.3995 H   0  0  0  0  0  0  0  0  0  0  0  0
   -3.5919    0.8793    1.6225 H   0  0  0  0  0  0  0  0  0  0  0  0
   -2.5819    0.2042    3.7077 H   0  0  0  0  0  0  0  0  0  0  0  0
    1.7409   -0.1121    2.1770 H   0  0  0  0  0  0  0  0  0  0  0  0
    0.9168    2.5720    2.4130 H   0  0  0  0  0  0  0  0  0  0  0  0
    2.9992    2.4532    1.0563 H   0  0  0  0  0  0  0  0  0  0  0  0
    3.5003    1.5794    3.2413 H   0  0  0  0  0  0  0  0  0  0  0  0
  1  2  1  0  0  0  0
  2  3  1  0  0  0  0
  3  4  1  0  0  0  0
  4  5  1  0  0  0  0
  5  6  1  0  0  0  0
  6  7  1  0  0  0  0
  5  8  1  0  0  0  0
  8  9  1  0  0  0  0
  9 10  1  0  0  0  0
 10 11  1  0  0  0  0
 11 12  1  0  0  0  0
 12 13  1  0  0  0  0
 13 14  1  0  0  0  0
 12 15  1  0  0  0  0
 15 16  1  0  0  0  0
 15 17  1  0  0  0  0
 17 18  1  0  0  0  0
 10 19  1  0  0  0  0
 17 19  1  0  0  0  0
 19 20  1  0  0  0  0
  8 21  1  0  0  0  0
 21 22  1  0  0  0  0
  3 23  1  0  0  0  0
 21 23  1  0  0  0  0
 23 24  1  0  0  0  0
  1 25  1  0  0  0  0
  1 26  1  0  0  0  0
  1 27  1  0  0  0  0
  3 28  1  0  0  0  0
  5 29  1  0  0  0  0
  6 30  1  0  0  0  0
  6 31  1  0  0  0  0
  7 32  1  0  0  0  0
  8 33  1  0  0  0  0
 10 34  1  0  0  0  0
 12 35  1  0  0  0  0
 13 36  1  0  0  0  0
 13 37  1  0  0  0  0
 14 38  1  0  0  0  0
 15 39  1  0  0  0  0
 16 40  1  0  0  0  0
 17 41  1  0  0  0  0
 18 42  1  0  0  0  0
 19 43  1  0  0  0  0
 20 44  1  0  0  0  0
 21 45  1  0  0  0  0
 22 46  1  0  0  0  0
 23 47  1  0  0  0  0
 24 48  1  0  0  0  0
M  END
