 xtb: 6.7.1 (edcfbbe)
          09222613083D

 48 49  0     0  0            999 V2000
    5.6862    1.5183   -0.5878 C   0  0  0  0  0  0  0  0  0  0  0  0
    4.8325    0.5537    0.0147 O   0  0  0  0  0  0  0  0  0  0  0  0
    3.6459    0.3384   -0.6536 C   0  0  0  0  0  0  0  0  0  0  0  0
    2.8011    1.4542   -0.4505 O   0  0  0  0  0  0  0  0  0  0  0  0
    1.5352    1.3298   -1.0672 C   0  0  0  0  0  0  0  0  0  0  0  0
    0.8038    2.6641   -0.8754 C   0  0  0  0  0  0  0  0  0  0  0  0
    1.5042    3.7330   -1.4495 O   0  0  0  0  0  0  0  0  0  0  0  0
    0.7648    0.1510   -0.4537 C   0  0  0  0  0  0  0  0  0  0  0  0
   -0.4833    0.0006   -1.1322 O   0  0  0  0  0  0  0  0  0  0  0  0
   -1.6578   -0.1087   -0.3993 C   0  0  0  0  0  0  0  0  0  0  0  0
   -1.5675   -1.2523    0.4346 O   0  0  0  0  0  0  0  0  0  0  0  0
   -2.6751   -1.5012    1.3068 C   0  0  0  0  0  0  0  0  0  0  0  0
   -3.0197   -3.0001    1.2311 C   0  0  0  0  0  0  0  0  0  0  0  0
   -2.1449   -3.7936    1.9854 O   0  0  0  0  0  0  0  0  0  0  0  0
   -3.9008   -0.6400    0.9624 C   0  0  0  0  0  0  0  0  0  0  0  0
   -4.9657   -0.8821    1.8404 O   0  0  0  0  0  0  0  0  0  0  0  0
   -3.5393    0.8654    0.9070 C   0  0  0  0  0  0  0  0  0  0  0  0
   -4.3701    1.5450    0.0018 O   0  0  0  0  0  0  0  0  0  0  0  0
   -2.0794    1.0998    0.4560 C   0  0  0  0  0  0  0  0  0  0  0  0
   -1.2206    1.3441    1.5375 O   0  0  0  0  0  0  0  0  0  0  0  0
    1.5874   -1.1336   -0.6244 C   0  0  0  0  0  0  0  0  0  0  0  0
    1.0258   -2.2208    0.0692 O   0  0  0  0  0  0  0  0  0  0  0  0
    3.0185   -0.9476   -0.0997 C   0  0  0  0  0  0  0  0  0  0  0  0
    3.8319   -2.0191   -0.4923 O   0  0  0  0  0  0  0  0  0  0  0  0
    5.2198    2.5054   -0.5879 H   0  0  0  0  0  0  0  0  0  0  0  0
    5.9296    1.2261   -1.6140 H   0  0  0  0  0  0  0  0  0  0  0  0
    6.5869    1.5304    0.0201 H   0  0  0  0  0  0  0  0  0  0  0  0
    3.8167    0.2048   -1.7441 H   0  0  0  0  0  0  0  0  0  0  0  0
    1.6663    1.1405   -2.1454 H   0  0  0  0  0  0  0  0  0  0  0  0
    0.6410    2.8290    0.1973 H   0  0  0  0  0  0  0  0  0  0  0  0
   -0.1579    2.6134   -1.3881 H   0  0  0  0  0  0  0  0  0  0  0  0
    2.3853    3.7555   -1.0534 H   0  0  0  0  0  0  0  0  0  0  0  0
    0.6158    0.3472    0.6108 H   0  0  0  0  0  0  0  0  0  0  0  0
   -2.4202   -0.2505   -1.1809 H   0  0  0  0  0  0  0  0  0  0  0  0
   -2.3597   -1.2870    2.3409 H   0  0  0  0  0  0  0  0  0  0  0  0
   -3.0306   -3.3040    0.1768 H   0  0  0  0  0  0  0  0  0  0  0  0
   -4.0135   -3.1540    1.6575 H   0  0  0  0  0  0  0  0  0  0  0  0
   -1.2534   -3.7296    1.6193 H   0  0  0  0  0  0  0  0  0  0  0  0
   -4.2764   -0.9403   -0.0226 H   0  0  0  0  0  0  0  0  0  0  0  0
   -4.7068   -0.6787    2.7505 H   0  0  0  0  0  0  0  0  0  0  0  0
   -3.6439    1.2964    1.9170 H   0  0  0  0  0  0  0  0  0  0  0  0
   -5.2939    1.4157    0.2590 H   0  0  0  0  0  0  0  0  0  0  0  0
   -2.0604    2.0041   -0.1569 H   0  0  0  0  0  0  0  0  0  0  0  0
   -1.1671    0.5589    2.1006 H   0  0  0  0  0  0  0  0  0  0  0  0
    1.6357   -1.3650   -1.7024 H   0  0  0  0  0  0  0  0  0  0  0  0
    0.0590   -2.1227    0.0383 H   0  0  0  0  0  0  0  0  0  0  0  0
    2.9902   -0.8592    0.9968 H   0  0  0  0  0  0  0  0  0  0  0  0
    3.4246   -2.8350   -0.1671 H   0  0  0  0  0  0  0  0  0  0  0  0
  1  2  1  0  0  0  0
  2  3  1  0  0  0  0
  3  4  1  0  0  0  0
  4  5  1  0  0  0  0
  5  6  1  0  0  0  0
  6  7  1  0  0  0  0
  5  8  1  0  0  0  0
  8  9  1  0  0  0  0
  9 10  1  0  0  0  0
 10 11  1  0  0  0  0
 11 12  1  0  0  0  0
 12 13  1  0  0  0  0
 13 14  1  0  0  0  0
 12 15  1  0  0  0  0
 15 16  1  0  0  0  0
 15 17  1  0  0  0  0
 17 18  1  0  0  0  0
 10 19  1  0  0  0  0
 17 19  1  0  0  0  0
 19 20  1  0  0  0  0
  8 21  1  0  0  0  0
 21 22  1  0  0  0  0
  3 23  1  0  0  0  0
 21 23  1  0  0  0  0
 23 24  1  0  0  0  0
  1 25  1  0  0  0  0
  1 26  1  0  0  0  0
  1 27  1  0  0  0  0
  3 28  1  0  0  0  0
  5 29  1  0  0  0  0
  6 30  1  0  0  0  0
  6 31  1  0  0  0  0
  7 32  1  0  0  0  0
  8 33  1  0  0  0  0
 10 34  1  0  0  0  0
 12 35  1  0  0  0  0
 13 36  1  0  0  0  0
 13 37  1  0  0  0  0
 14 38  1  0  0  0  0
 15 39  1  0  0  0  0
 16 40  1  0  0  0  0
 17 41  1  0  0  0  0
 18 42  1  0  0  0  0
 19 43  1  0  0  0  0
 20 44  1  0  0  0  0
 21 45  1  0  0  0  0
 22 46  1  0  0  0  0
 23 47  1  0  0  0  0
 24 48  1  0  0  0  0
M  END
