 xtb: 6.7.1 (edcfbbe)
          09222613213D

 48 49  0     0  0            999 V2000
    5.5184    1.4062    0.0604 C   0  0  0  0  0  0  0  0  0  0  0  0
    4.3602    1.2683   -0.7397 O   0  0  0  0  0  0  0  0  0  0  0  0
    3.1788    1.2531   -0.0305 C   0  0  0  0  0  0  0  0  0  0  0  0
    3.0595    0.0145    0.6352 O   0  0  0  0  0  0  0  0  0  0  0  0
    1.8787   -0.0991    1.3978 C   0  0  0  0  0  0  0  0  0  0  0  0
    1.9918   -1.4136    2.1811 C   0  0  0  0  0  0  0  0  0  0  0  0
    3.1302   -1.4234    2.9959 O   0  0  0  0  0  0  0  0  0  0  0  0
    0.6113   -0.0748    0.5159 C   0  0  0  0  0  0  0  0  0  0  0  0
   -0.4729   -0.0075    1.4315 O   0  0  0  0  0  0  0  0  0  0  0  0
   -1.6055   -0.8348    1.4457 C   0  0  0  0  0  0  0  0  0  0  0  0
   -2.7726   -0.0780    1.2856 O   0  0  0  0  0  0  0  0  0  0  0  0
   -3.0509    0.3833   -0.0355 C   0  0  0  0  0  0  0  0  0  0  0  0
   -4.2900    1.2753    0.1112 C   0  0  0  0  0  0  0  0  0  0  0  0
   -4.0245    2.3755    0.9304 O   0  0  0  0  0  0  0  0  0  0  0  0
   -3.2797   -0.8211   -0.9587 C   0  0  0  0  0  0  0  0  0  0  0  0
   -3.4650   -0.4715   -2.3119 O   0  0  0  0  0  0  0  0  0  0  0  0
   -2.0362   -1.7147   -0.9184 C   0  0  0  0  0  0  0  0  0  0  0  0
   -2.2459   -2.9292   -1.6010 O   0  0  0  0  0  0  0  0  0  0  0  0
   -1.6753   -2.0728    0.5283 C   0  0  0  0  0  0  0  0  0  0  0  0
   -0.4914   -2.8205    0.5939 O   0  0  0  0  0  0  0  0  0  0  0  0
    0.6537    1.1935   -0.3625 C   0  0  0  0  0  0  0  0  0  0  0  0
   -0.3285    1.2231   -1.3770 O   0  0  0  0  0  0  0  0  0  0  0  0
    2.0240    1.4262   -1.0213 C   0  0  0  0  0  0  0  0  0  0  0  0
    2.0793    2.7222   -1.5499 O   0  0  0  0  0  0  0  0  0  0  0  0
    5.6421    0.5497    0.7283 H   0  0  0  0  0  0  0  0  0  0  0  0
    5.4720    2.3255    0.6543 H   0  0  0  0  0  0  0  0  0  0  0  0
    6.3543    1.4578   -0.6328 H   0  0  0  0  0  0  0  0  0  0  0  0
    3.1425    2.0769    0.7132 H   0  0  0  0  0  0  0  0  0  0  0  0
    1.8101    0.7427    2.1048 H   0  0  0  0  0  0  0  0  0  0  0  0
    2.0100   -2.2474    1.4675 H   0  0  0  0  0  0  0  0  0  0  0  0
    1.1264   -1.5242    2.8339 H   0  0  0  0  0  0  0  0  0  0  0  0
    3.8823   -1.2072    2.4309 H   0  0  0  0  0  0  0  0  0  0  0  0
    0.5836   -0.9780   -0.0969 H   0  0  0  0  0  0  0  0  0  0  0  0
   -1.6770   -1.1903    2.4859 H   0  0  0  0  0  0  0  0  0  0  0  0
   -2.2141    0.9830   -0.4140 H   0  0  0  0  0  0  0  0  0  0  0  0
   -5.1109    0.6700    0.5256 H   0  0  0  0  0  0  0  0  0  0  0  0
   -4.5921    1.6823   -0.8573 H   0  0  0  0  0  0  0  0  0  0  0  0
   -3.5708    2.0424    1.7155 H   0  0  0  0  0  0  0  0  0  0  0  0
   -4.1433   -1.3984   -0.5880 H   0  0  0  0  0  0  0  0  0  0  0  0
   -4.1864    0.1612   -2.3853 H   0  0  0  0  0  0  0  0  0  0  0  0
   -1.2145   -1.1645   -1.3970 H   0  0  0  0  0  0  0  0  0  0  0  0
   -2.6624   -2.7151   -2.4446 H   0  0  0  0  0  0  0  0  0  0  0  0
   -2.5172   -2.6716    0.9162 H   0  0  0  0  0  0  0  0  0  0  0  0
   -0.6060   -3.5757    0.0011 H   0  0  0  0  0  0  0  0  0  0  0  0
    0.4171    2.0477    0.2828 H   0  0  0  0  0  0  0  0  0  0  0  0
   -0.1050    0.5766   -2.0596 H   0  0  0  0  0  0  0  0  0  0  0  0
    2.1759    0.6760   -1.8182 H   0  0  0  0  0  0  0  0  0  0  0  0
    1.2358    2.9004   -1.9894 H   0  0  0  0  0  0  0  0  0  0  0  0
  1  2  1  0  0  0  0
  2  3  1  0  0  0  0
  3  4  1  0  0  0  0
  4  5  1  0  0  0  0
  5  6  1  0  0  0  0
  6  7  1  0  0  0  0
  5  8  1  0  0  0  0
  8  9  1  0  0  0  0
  9 10  1  0  0  0  0
 10 11  1  0  0  0  0
 11 12  1  0  0  0  0
 12 13  1  0  0  0  0
 13 14  1  0  0  0  0
 12 15  1  0  0  0  0
 15 16  1  0  0  0  0
 15 17  1  0  0  0  0
 17 18  1  0  0  0  0
 10 19  1  0  0  0  0
 17 19  1  0  0  0  0
 19 20  1  0  0  0  0
  8 21  1  0  0  0  0
 21 22  1  0  0  0  0
  3 23  1  0  0  0  0
 21 23  1  0  0  0  0
 23 24  1  0  0  0  0
  1 25  1  0  0  0  0
  1 26  1  0  0  0  0
  1 27  1  0  0  0  0
  3 28  1  0  0  0  0
  5 29  1  0  0  0  0
  6 30  1  0  0  0  0
  6 31  1  0  0  0  0
  7 32  1  0  0  0  0
  8 33  1  0  0  0  0
 10 34  1  0  0  0  0
 12 35  1  0  0  0  0
 13 36  1  0  0  0  0
 13 37  1  0  0  0  0
 14 38  1  0  0  0  0
 15 39  1  0  0  0  0
 16 40  1  0  0  0  0
 17 41  1  0  0  0  0
 18 42  1  0  0  0  0
 19 43  1  0  0  0  0
 20 44  1  0  0  0  0
 21 45  1  0  0  0  0
 22 46  1  0  0  0  0
 23 47  1  0  0  0  0
 24 48  1  0  0  0  0
M  END
