 xtb: 6.7.1 (edcfbbe)
          09212615523D

 48 49  0     0  0            999 V2000
    5.6854   -0.7473    0.1208 C   0  0  0  0  0  0  0  0  0  0  0  0
    4.9101    0.3318    0.6369 O   0  0  0  0  0  0  0  0  0  0  0  0
    3.6014    0.0054    0.9297 C   0  0  0  0  0  0  0  0  0  0  0  0
    2.9106   -0.2015   -0.2866 O   0  0  0  0  0  0  0  0  0  0  0  0
    1.5479   -0.5390   -0.1257 C   0  0  0  0  0  0  0  0  0  0  0  0
    1.0125   -0.9083   -1.5229 C   0  0  0  0  0  0  0  0  0  0  0  0
    0.2216   -2.0667   -1.5126 O   0  0  0  0  0  0  0  0  0  0  0  0
    0.7870    0.6160    0.5546 C   0  0  0  0  0  0  0  0  0  0  0  0
   -0.5527    0.2129    0.8149 O   0  0  0  0  0  0  0  0  0  0  0  0
   -1.5697    1.0907    0.4188 C   0  0  0  0  0  0  0  0  0  0  0  0
   -1.8707    1.0201   -0.9447 O   0  0  0  0  0  0  0  0  0  0  0  0
   -2.4220   -0.2231   -1.3984 C   0  0  0  0  0  0  0  0  0  0  0  0
   -2.8050   -0.0039   -2.8693 C   0  0  0  0  0  0  0  0  0  0  0  0
   -1.7072    0.3644   -3.6626 O   0  0  0  0  0  0  0  0  0  0  0  0
   -3.6405   -0.6608   -0.5760 C   0  0  0  0  0  0  0  0  0  0  0  0
   -4.0961   -1.9337   -0.9550 O   0  0  0  0  0  0  0  0  0  0  0  0
   -3.3065   -0.6169    0.9229 C   0  0  0  0  0  0  0  0  0  0  0  0
   -4.4385   -0.8955    1.7128 O   0  0  0  0  0  0  0  0  0  0  0  0
   -2.8140    0.7892    1.2698 C   0  0  0  0  0  0  0  0  0  0  0  0
   -2.4903    0.9358    2.6214 O   0  0  0  0  0  0  0  0  0  0  0  0
    1.4685    0.9957    1.8816 C   0  0  0  0  0  0  0  0  0  0  0  0
    0.9175    2.1512    2.4613 O   0  0  0  0  0  0  0  0  0  0  0  0
    2.9895    1.1663    1.7210 C   0  0  0  0  0  0  0  0  0  0  0  0
    3.6183    1.2076    2.9733 O   0  0  0  0  0  0  0  0  0  0  0  0
    5.2609   -1.1078   -0.8177 H   0  0  0  0  0  0  0  0  0  0  0  0
    5.7302   -1.5624    0.8485 H   0  0  0  0  0  0  0  0  0  0  0  0
    6.6763   -0.3355   -0.0448 H   0  0  0  0  0  0  0  0  0  0  0  0
    3.5468   -0.9167    1.5453 H   0  0  0  0  0  0  0  0  0  0  0  0
    1.4599   -1.4171    0.5356 H   0  0  0  0  0  0  0  0  0  0  0  0
    1.8773   -1.0166   -2.1844 H   0  0  0  0  0  0  0  0  0  0  0  0
    0.3819   -0.1078   -1.9123 H   0  0  0  0  0  0  0  0  0  0  0  0
    0.7832   -2.8504   -1.4250 H   0  0  0  0  0  0  0  0  0  0  0  0
    0.7937    1.4817   -0.1215 H   0  0  0  0  0  0  0  0  0  0  0  0
   -1.2670    2.1326    0.5879 H   0  0  0  0  0  0  0  0  0  0  0  0
   -1.6557   -1.0052   -1.3276 H   0  0  0  0  0  0  0  0  0  0  0  0
   -3.5894    0.7612   -2.9166 H   0  0  0  0  0  0  0  0  0  0  0  0
   -3.1884   -0.9381   -3.2810 H   0  0  0  0  0  0  0  0  0  0  0  0
   -1.3910    1.2256   -3.3562 H   0  0  0  0  0  0  0  0  0  0  0  0
   -4.4822    0.0172   -0.7619 H   0  0  0  0  0  0  0  0  0  0  0  0
   -3.3592   -2.5632   -0.9358 H   0  0  0  0  0  0  0  0  0  0  0  0
   -2.4989   -1.3311    1.1480 H   0  0  0  0  0  0  0  0  0  0  0  0
   -4.9158   -1.6403    1.3153 H   0  0  0  0  0  0  0  0  0  0  0  0
   -3.5958    1.5127    0.9838 H   0  0  0  0  0  0  0  0  0  0  0  0
   -3.2053    0.5363    3.1425 H   0  0  0  0  0  0  0  0  0  0  0  0
    1.2693    0.1962    2.6037 H   0  0  0  0  0  0  0  0  0  0  0  0
    1.0663    2.9141    1.8824 H   0  0  0  0  0  0  0  0  0  0  0  0
    3.2023    2.0854    1.1509 H   0  0  0  0  0  0  0  0  0  0  0  0
    3.1436    1.8388    3.5386 H   0  0  0  0  0  0  0  0  0  0  0  0
  1  2  1  0  0  0  0
  2  3  1  0  0  0  0
  3  4  1  0  0  0  0
  4  5  1  0  0  0  0
  5  6  1  0  0  0  0
  6  7  1  0  0  0  0
  5  8  1  0  0  0  0
  8  9  1  0  0  0  0
  9 10  1  0  0  0  0
 10 11  1  0  0  0  0
 11 12  1  0  0  0  0
 12 13  1  0  0  0  0
 13 14  1  0  0  0  0
 12 15  1  0  0  0  0
 15 16  1  0  0  0  0
 15 17  1  0  0  0  0
 17 18  1  0  0  0  0
 10 19  1  0  0  0  0
 17 19  1  0  0  0  0
 19 20  1  0  0  0  0
  8 21  1  0  0  0  0
 21 22  1  0  0  0  0
  3 23  1  0  0  0  0
 21 23  1  0  0  0  0
 23 24  1  0  0  0  0
  1 25  1  0  0  0  0
  1 26  1  0  0  0  0
  1 27  1  0  0  0  0
  3 28  1  0  0  0  0
  5 29  1  0  0  0  0
  6 30  1  0  0  0  0
  6 31  1  0  0  0  0
  7 32  1  0  0  0  0
  8 33  1  0  0  0  0
 10 34  1  0  0  0  0
 12 35  1  0  0  0  0
 13 36  1  0  0  0  0
 13 37  1  0  0  0  0
 14 38  1  0  0  0  0
 15 39  1  0  0  0  0
 16 40  1  0  0  0  0
 17 41  1  0  0  0  0
 18 42  1  0  0  0  0
 19 43  1  0  0  0  0
 20 44  1  0  0  0  0
 21 45  1  0  0  0  0
 22 46  1  0  0  0  0
 23 47  1  0  0  0  0
 24 48  1  0  0  0  0
M  END
