 xtb: 6.7.1 (edcfbbe)
          09222613013D

 48 49  0     0  0            999 V2000
    5.5372   -1.7412   -0.4811 C   0  0  0  0  0  0  0  0  0  0  0  0
    4.9197   -0.6731    0.2259 O   0  0  0  0  0  0  0  0  0  0  0  0
    3.5480   -0.7648    0.3248 C   0  0  0  0  0  0  0  0  0  0  0  0
    2.9761   -0.4712   -0.9340 O   0  0  0  0  0  0  0  0  0  0  0  0
    1.5679   -0.5127   -0.9278 C   0  0  0  0  0  0  0  0  0  0  0  0
    1.1045   -0.3061   -2.3769 C   0  0  0  0  0  0  0  0  0  0  0  0
    1.4818   -1.3636   -3.2122 O   0  0  0  0  0  0  0  0  0  0  0  0
    0.9500    0.5537    0.0021 C   0  0  0  0  0  0  0  0  0  0  0  0
   -0.4455    0.2859    0.0067 O   0  0  0  0  0  0  0  0  0  0  0  0
   -1.3685    1.3174   -0.2446 C   0  0  0  0  0  0  0  0  0  0  0  0
   -2.3780    0.8089   -1.0692 O   0  0  0  0  0  0  0  0  0  0  0  0
   -3.0771   -0.3100   -0.5219 C   0  0  0  0  0  0  0  0  0  0  0  0
   -4.1385   -0.7187   -1.5520 C   0  0  0  0  0  0  0  0  0  0  0  0
   -3.5878   -1.3209   -2.6907 O   0  0  0  0  0  0  0  0  0  0  0  0
   -3.7327    0.0360    0.8256 C   0  0  0  0  0  0  0  0  0  0  0  0
   -4.3320   -1.0780    1.4318 O   0  0  0  0  0  0  0  0  0  0  0  0
   -2.7033    0.6884    1.7619 C   0  0  0  0  0  0  0  0  0  0  0  0
   -3.3050    1.1859    2.9323 O   0  0  0  0  0  0  0  0  0  0  0  0
   -2.0501    1.8611    1.0280 C   0  0  0  0  0  0  0  0  0  0  0  0
   -1.1418    2.5560    1.8386 O   0  0  0  0  0  0  0  0  0  0  0  0
    1.5500    0.4043    1.4104 C   0  0  0  0  0  0  0  0  0  0  0  0
    1.3268    1.5066    2.2480 O   0  0  0  0  0  0  0  0  0  0  0  0
    3.0821    0.2453    1.3757 C   0  0  0  0  0  0  0  0  0  0  0  0
    3.5434   -0.1916    2.6248 O   0  0  0  0  0  0  0  0  0  0  0  0
    5.2206   -1.7513   -1.5259 H   0  0  0  0  0  0  0  0  0  0  0  0
    5.2954   -2.7004   -0.0130 H   0  0  0  0  0  0  0  0  0  0  0  0
    6.6056   -1.5538   -0.4164 H   0  0  0  0  0  0  0  0  0  0  0  0
    3.2342   -1.7839    0.6397 H   0  0  0  0  0  0  0  0  0  0  0  0
    1.2261   -1.4996   -0.5752 H   0  0  0  0  0  0  0  0  0  0  0  0
    1.5158    0.6458   -2.7386 H   0  0  0  0  0  0  0  0  0  0  0  0
    0.0145   -0.2651   -2.3986 H   0  0  0  0  0  0  0  0  0  0  0  0
    2.4438   -1.4443   -3.1775 H   0  0  0  0  0  0  0  0  0  0  0  0
    1.1584    1.5589   -0.3834 H   0  0  0  0  0  0  0  0  0  0  0  0
   -0.8993    2.1402   -0.7995 H   0  0  0  0  0  0  0  0  0  0  0  0
   -2.3658   -1.1366   -0.3818 H   0  0  0  0  0  0  0  0  0  0  0  0
   -4.7192    0.1733   -1.8188 H   0  0  0  0  0  0  0  0  0  0  0  0
   -4.8028   -1.4590   -1.1013 H   0  0  0  0  0  0  0  0  0  0  0  0
   -3.0056   -0.6834   -3.1226 H   0  0  0  0  0  0  0  0  0  0  0  0
   -4.5483    0.7500    0.6585 H   0  0  0  0  0  0  0  0  0  0  0  0
   -3.6884   -1.7958    1.5124 H   0  0  0  0  0  0  0  0  0  0  0  0
   -1.9224   -0.0466    2.0201 H   0  0  0  0  0  0  0  0  0  0  0  0
   -3.9633    0.5451    3.2350 H   0  0  0  0  0  0  0  0  0  0  0  0
   -2.8413    2.5474    0.6887 H   0  0  0  0  0  0  0  0  0  0  0  0
   -1.5905    2.7483    2.6774 H   0  0  0  0  0  0  0  0  0  0  0  0
    1.1189   -0.5095    1.8570 H   0  0  0  0  0  0  0  0  0  0  0  0
    0.4212    1.8570    2.1200 H   0  0  0  0  0  0  0  0  0  0  0  0
    3.5242    1.2184    1.1141 H   0  0  0  0  0  0  0  0  0  0  0  0
    3.2409    0.4471    3.2868 H   0  0  0  0  0  0  0  0  0  0  0  0
  1  2  1  0  0  0  0
  2  3  1  0  0  0  0
  3  4  1  0  0  0  0
  4  5  1  0  0  0  0
  5  6  1  0  0  0  0
  6  7  1  0  0  0  0
  5  8  1  0  0  0  0
  8  9  1  0  0  0  0
  9 10  1  0  0  0  0
 10 11  1  0  0  0  0
 11 12  1  0  0  0  0
 12 13  1  0  0  0  0
 13 14  1  0  0  0  0
 12 15  1  0  0  0  0
 15 16  1  0  0  0  0
 15 17  1  0  0  0  0
 17 18  1  0  0  0  0
 10 19  1  0  0  0  0
 17 19  1  0  0  0  0
 19 20  1  0  0  0  0
  8 21  1  0  0  0  0
 21 22  1  0  0  0  0
  3 23  1  0  0  0  0
 21 23  1  0  0  0  0
 23 24  1  0  0  0  0
  1 25  1  0  0  0  0
  1 26  1  0  0  0  0
  1 27  1  0  0  0  0
  3 28  1  0  0  0  0
  5 29  1  0  0  0  0
  6 30  1  0  0  0  0
  6 31  1  0  0  0  0
  7 32  1  0  0  0  0
  8 33  1  0  0  0  0
 10 34  1  0  0  0  0
 12 35  1  0  0  0  0
 13 36  1  0  0  0  0
 13 37  1  0  0  0  0
 14 38  1  0  0  0  0
 15 39  1  0  0  0  0
 16 40  1  0  0  0  0
 17 41  1  0  0  0  0
 18 42  1  0  0  0  0
 19 43  1  0  0  0  0
 20 44  1  0  0  0  0
 21 45  1  0  0  0  0
 22 46  1  0  0  0  0
 23 47  1  0  0  0  0
 24 48  1  0  0  0  0
M  END
