 xtb: 6.7.1 (edcfbbe)
          09212615473D

 48 49  0     0  0            999 V2000
    3.5553   -0.1806   -2.0843 C   0  0  0  0  0  0  0  0  0  0  0  0
    2.7334    0.7512   -1.3874 O   0  0  0  0  0  0  0  0  0  0  0  0
    3.1361    0.9855   -0.0613 C   0  0  0  0  0  0  0  0  0  0  0  0
    3.0071   -0.1672    0.7228 O   0  0  0  0  0  0  0  0  0  0  0  0
    1.8746   -0.2540    1.5899 C   0  0  0  0  0  0  0  0  0  0  0  0
    1.7998   -1.7225    2.0071 C   0  0  0  0  0  0  0  0  0  0  0  0
    2.9198   -2.0959    2.7671 O   0  0  0  0  0  0  0  0  0  0  0  0
    0.5970    0.2859    0.9245 C   0  0  0  0  0  0  0  0  0  0  0  0
   -0.4372    0.2593    1.9054 O   0  0  0  0  0  0  0  0  0  0  0  0
   -1.7303   -0.2576    1.7404 C   0  0  0  0  0  0  0  0  0  0  0  0
   -2.5992    0.6327    1.0785 O   0  0  0  0  0  0  0  0  0  0  0  0
   -2.5726    0.6506   -0.3453 C   0  0  0  0  0  0  0  0  0  0  0  0
   -3.6263    1.6862   -0.7732 C   0  0  0  0  0  0  0  0  0  0  0  0
   -3.6153    1.9060   -2.1623 O   0  0  0  0  0  0  0  0  0  0  0  0
   -2.8973   -0.7327   -0.9259 C   0  0  0  0  0  0  0  0  0  0  0  0
   -2.7631   -0.7645   -2.3251 O   0  0  0  0  0  0  0  0  0  0  0  0
   -1.9408   -1.7780   -0.3448 C   0  0  0  0  0  0  0  0  0  0  0  0
   -2.3503   -3.0873   -0.6647 O   0  0  0  0  0  0  0  0  0  0  0  0
   -1.9432   -1.6868    1.1877 C   0  0  0  0  0  0  0  0  0  0  0  0
   -1.0309   -2.5749    1.7672 O   0  0  0  0  0  0  0  0  0  0  0  0
    0.8081    1.7408    0.4244 C   0  0  0  0  0  0  0  0  0  0  0  0
    0.2798    1.9375   -0.8619 O   0  0  0  0  0  0  0  0  0  0  0  0
    2.2894    2.1591    0.4574 C   0  0  0  0  0  0  0  0  0  0  0  0
    2.6423    2.5422    1.7563 O   0  0  0  0  0  0  0  0  0  0  0  0
    3.5419   -1.1509   -1.5853 H   0  0  0  0  0  0  0  0  0  0  0  0
    4.5821    0.1904   -2.1356 H   0  0  0  0  0  0  0  0  0  0  0  0
    3.1341   -0.2612   -3.0818 H   0  0  0  0  0  0  0  0  0  0  0  0
    4.2126    1.2330   -0.0477 H   0  0  0  0  0  0  0  0  0  0  0  0
    2.0572    0.3554    2.4861 H   0  0  0  0  0  0  0  0  0  0  0  0
    1.7182   -2.3468    1.1081 H   0  0  0  0  0  0  0  0  0  0  0  0
    0.9234   -1.8815    2.6331 H   0  0  0  0  0  0  0  0  0  0  0  0
    3.7171   -1.8725    2.2646 H   0  0  0  0  0  0  0  0  0  0  0  0
    0.3550   -0.3511    0.0670 H   0  0  0  0  0  0  0  0  0  0  0  0
   -2.0894   -0.2490    2.7778 H   0  0  0  0  0  0  0  0  0  0  0  0
   -1.5902    0.9736   -0.7134 H   0  0  0  0  0  0  0  0  0  0  0  0
   -3.4504    2.6076   -0.2112 H   0  0  0  0  0  0  0  0  0  0  0  0
   -4.6220    1.3131   -0.5225 H   0  0  0  0  0  0  0  0  0  0  0  0
   -2.8428    2.4404   -2.3962 H   0  0  0  0  0  0  0  0  0  0  0  0
   -3.9232   -1.0097   -0.6297 H   0  0  0  0  0  0  0  0  0  0  0  0
   -3.2457   -0.0027   -2.6948 H   0  0  0  0  0  0  0  0  0  0  0  0
   -0.9338   -1.6044   -0.7507 H   0  0  0  0  0  0  0  0  0  0  0  0
   -2.4945   -3.1396   -1.6213 H   0  0  0  0  0  0  0  0  0  0  0  0
   -2.9698   -1.9492    1.4972 H   0  0  0  0  0  0  0  0  0  0  0  0
   -1.2450   -3.4664    1.4481 H   0  0  0  0  0  0  0  0  0  0  0  0
    0.2517    2.3986    1.1010 H   0  0  0  0  0  0  0  0  0  0  0  0
    0.8860    1.5321   -1.5061 H   0  0  0  0  0  0  0  0  0  0  0  0
    2.4017    2.9933   -0.2493 H   0  0  0  0  0  0  0  0  0  0  0  0
    3.4896    3.0123    1.7535 H   0  0  0  0  0  0  0  0  0  0  0  0
  1  2  1  0  0  0  0
  2  3  1  0  0  0  0
  3  4  1  0  0  0  0
  4  5  1  0  0  0  0
  5  6  1  0  0  0  0
  6  7  1  0  0  0  0
  5  8  1  0  0  0  0
  8  9  1  0  0  0  0
  9 10  1  0  0  0  0
 10 11  1  0  0  0  0
 11 12  1  0  0  0  0
 12 13  1  0  0  0  0
 13 14  1  0  0  0  0
 12 15  1  0  0  0  0
 15 16  1  0  0  0  0
 15 17  1  0  0  0  0
 17 18  1  0  0  0  0
 10 19  1  0  0  0  0
 17 19  1  0  0  0  0
 19 20  1  0  0  0  0
  8 21  1  0  0  0  0
 21 22  1  0  0  0  0
  3 23  1  0  0  0  0
 21 23  1  0  0  0  0
 23 24  1  0  0  0  0
  1 25  1  0  0  0  0
  1 26  1  0  0  0  0
  1 27  1  0  0  0  0
  3 28  1  0  0  0  0
  5 29  1  0  0  0  0
  6 30  1  0  0  0  0
  6 31  1  0  0  0  0
  7 32  1  0  0  0  0
  8 33  1  0  0  0  0
 10 34  1  0  0  0  0
 12 35  1  0  0  0  0
 13 36  1  0  0  0  0
 13 37  1  0  0  0  0
 14 38  1  0  0  0  0
 15 39  1  0  0  0  0
 16 40  1  0  0  0  0
 17 41  1  0  0  0  0
 18 42  1  0  0  0  0
 19 43  1  0  0  0  0
 20 44  1  0  0  0  0
 21 45  1  0  0  0  0
 22 46  1  0  0  0  0
 23 47  1  0  0  0  0
 24 48  1  0  0  0  0
M  END
