 xtb: 6.7.1 (edcfbbe)
          09222613103D

 48 49  0     0  0            999 V2000
    5.5199    1.8107   -1.0512 C   0  0  0  0  0  0  0  0  0  0  0  0
    4.8234    0.7689   -0.3808 O   0  0  0  0  0  0  0  0  0  0  0  0
    3.5504    0.5264   -0.8541 C   0  0  0  0  0  0  0  0  0  0  0  0
    2.7022    1.5792   -0.4459 O   0  0  0  0  0  0  0  0  0  0  0  0
    1.3710    1.4478   -0.9065 C   0  0  0  0  0  0  0  0  0  0  0  0
    0.6477    2.7438   -0.5275 C   0  0  0  0  0  0  0  0  0  0  0  0
    1.1833    3.8472   -1.2062 O   0  0  0  0  0  0  0  0  0  0  0  0
    0.7147    0.1815   -0.3249 C   0  0  0  0  0  0  0  0  0  0  0  0
   -0.5409   -0.0101   -0.9663 O   0  0  0  0  0  0  0  0  0  0  0  0
   -1.6877   -0.2764   -0.2101 C   0  0  0  0  0  0  0  0  0  0  0  0
   -1.3735   -0.7917    1.0605 O   0  0  0  0  0  0  0  0  0  0  0  0
   -2.4458   -1.5452    1.6218 C   0  0  0  0  0  0  0  0  0  0  0  0
   -2.3118   -3.0419    1.2677 C   0  0  0  0  0  0  0  0  0  0  0  0
   -1.0767   -3.5807    1.6484 O   0  0  0  0  0  0  0  0  0  0  0  0
   -3.8370   -1.0351    1.1855 C   0  0  0  0  0  0  0  0  0  0  0  0
   -4.8157   -1.3204    2.1504 O   0  0  0  0  0  0  0  0  0  0  0  0
   -3.8633    0.4643    0.7989 C   0  0  0  0  0  0  0  0  0  0  0  0
   -4.9564    0.7175   -0.0470 O   0  0  0  0  0  0  0  0  0  0  0  0
   -2.5805    0.9517    0.0766 C   0  0  0  0  0  0  0  0  0  0  0  0
   -1.8952    1.8850    0.8671 O   0  0  0  0  0  0  0  0  0  0  0  0
    1.5890   -1.0668   -0.5332 C   0  0  0  0  0  0  0  0  0  0  0  0
    1.1496   -2.1437    0.2634 O   0  0  0  0  0  0  0  0  0  0  0  0
    3.0813   -0.8067   -0.2593 C   0  0  0  0  0  0  0  0  0  0  0  0
    3.8667   -1.8249   -0.8183 O   0  0  0  0  0  0  0  0  0  0  0  0
    5.0269    2.7722   -0.8954 H   0  0  0  0  0  0  0  0  0  0  0  0
    5.5861    1.6003   -2.1231 H   0  0  0  0  0  0  0  0  0  0  0  0
    6.5141    1.8259   -0.6124 H   0  0  0  0  0  0  0  0  0  0  0  0
    3.5385    0.4522   -1.9625 H   0  0  0  0  0  0  0  0  0  0  0  0
    1.3706    1.3506   -2.0055 H   0  0  0  0  0  0  0  0  0  0  0  0
    0.7150    2.8836    0.5581 H   0  0  0  0  0  0  0  0  0  0  0  0
   -0.4002    2.6771   -0.8164 H   0  0  0  0  0  0  0  0  0  0  0  0
    2.1214    3.9077   -0.9829 H   0  0  0  0  0  0  0  0  0  0  0  0
    0.5726    0.3310    0.7521 H   0  0  0  0  0  0  0  0  0  0  0  0
   -2.2538   -0.9993   -0.8163 H   0  0  0  0  0  0  0  0  0  0  0  0
   -2.3183   -1.4323    2.7045 H   0  0  0  0  0  0  0  0  0  0  0  0
   -2.4776   -3.1745    0.1901 H   0  0  0  0  0  0  0  0  0  0  0  0
   -3.0827   -3.5922    1.8118 H   0  0  0  0  0  0  0  0  0  0  0  0
   -0.3897   -3.2073    1.0740 H   0  0  0  0  0  0  0  0  0  0  0  0
   -4.1603   -1.5974    0.3009 H   0  0  0  0  0  0  0  0  0  0  0  0
   -4.6022   -0.8805    2.9854 H   0  0  0  0  0  0  0  0  0  0  0  0
   -3.9595    1.0654    1.7194 H   0  0  0  0  0  0  0  0  0  0  0  0
   -5.7620    0.3853    0.3745 H   0  0  0  0  0  0  0  0  0  0  0  0
   -2.8682    1.4601   -0.8456 H   0  0  0  0  0  0  0  0  0  0  0  0
   -1.4918    1.4072    1.6077 H   0  0  0  0  0  0  0  0  0  0  0  0
    1.4707   -1.3995   -1.5704 H   0  0  0  0  0  0  0  0  0  0  0  0
    1.2473   -1.8990    1.1959 H   0  0  0  0  0  0  0  0  0  0  0  0
    3.2498   -0.7391    0.8284 H   0  0  0  0  0  0  0  0  0  0  0  0
    3.5387   -2.6781   -0.4976 H   0  0  0  0  0  0  0  0  0  0  0  0
  1  2  1  0  0  0  0
  2  3  1  0  0  0  0
  3  4  1  0  0  0  0
  4  5  1  0  0  0  0
  5  6  1  0  0  0  0
  6  7  1  0  0  0  0
  5  8  1  0  0  0  0
  8  9  1  0  0  0  0
  9 10  1  0  0  0  0
 10 11  1  0  0  0  0
 11 12  1  0  0  0  0
 12 13  1  0  0  0  0
 13 14  1  0  0  0  0
 12 15  1  0  0  0  0
 15 16  1  0  0  0  0
 15 17  1  0  0  0  0
 17 18  1  0  0  0  0
 10 19  1  0  0  0  0
 17 19  1  0  0  0  0
 19 20  1  0  0  0  0
  8 21  1  0  0  0  0
 21 22  1  0  0  0  0
  3 23  1  0  0  0  0
 21 23  1  0  0  0  0
 23 24  1  0  0  0  0
  1 25  1  0  0  0  0
  1 26  1  0  0  0  0
  1 27  1  0  0  0  0
  3 28  1  0  0  0  0
  5 29  1  0  0  0  0
  6 30  1  0  0  0  0
  6 31  1  0  0  0  0
  7 32  1  0  0  0  0
  8 33  1  0  0  0  0
 10 34  1  0  0  0  0
 12 35  1  0  0  0  0
 13 36  1  0  0  0  0
 13 37  1  0  0  0  0
 14 38  1  0  0  0  0
 15 39  1  0  0  0  0
 16 40  1  0  0  0  0
 17 41  1  0  0  0  0
 18 42  1  0  0  0  0
 19 43  1  0  0  0  0
 20 44  1  0  0  0  0
 21 45  1  0  0  0  0
 22 46  1  0  0  0  0
 23 47  1  0  0  0  0
 24 48  1  0  0  0  0
M  END
