 xtb: 6.7.1 (edcfbbe)
          09212615473D

 48 49  0     0  0            999 V2000
    5.5780    1.8026   -0.6712 C   0  0  0  0  0  0  0  0  0  0  0  0
    4.7768    0.8338   -0.0024 O   0  0  0  0  0  0  0  0  0  0  0  0
    3.6001    0.5080   -0.6472 C   0  0  0  0  0  0  0  0  0  0  0  0
    2.6958    1.5863   -0.5080 O   0  0  0  0  0  0  0  0  0  0  0  0
    1.4291    1.3438   -1.0926 C   0  0  0  0  0  0  0  0  0  0  0  0
    0.6187    2.6411   -0.9892 C   0  0  0  0  0  0  0  0  0  0  0  0
    1.2075    3.6894   -1.7102 O   0  0  0  0  0  0  0  0  0  0  0  0
    0.7374    0.1693   -0.3816 C   0  0  0  0  0  0  0  0  0  0  0  0
   -0.5124   -0.0963   -1.0125 O   0  0  0  0  0  0  0  0  0  0  0  0
   -1.6541   -0.2195   -0.2286 C   0  0  0  0  0  0  0  0  0  0  0  0
   -1.4235   -1.1203    0.8362 O   0  0  0  0  0  0  0  0  0  0  0  0
   -2.6182   -1.7086    1.3463 C   0  0  0  0  0  0  0  0  0  0  0  0
   -2.7888   -3.1163    0.7469 C   0  0  0  0  0  0  0  0  0  0  0  0
   -1.6971   -3.9454    1.0482 O   0  0  0  0  0  0  0  0  0  0  0  0
   -3.8717   -0.8494    1.0898 C   0  0  0  0  0  0  0  0  0  0  0  0
   -4.9020   -1.1610    1.9905 O   0  0  0  0  0  0  0  0  0  0  0  0
   -3.5836    0.6734    1.0851 C   0  0  0  0  0  0  0  0  0  0  0  0
   -4.6023    1.3509    0.3933 O   0  0  0  0  0  0  0  0  0  0  0  0
   -2.2340    1.0537    0.4214 C   0  0  0  0  0  0  0  0  0  0  0  0
   -1.3485    1.6164    1.3540 O   0  0  0  0  0  0  0  0  0  0  0  0
    1.6265   -1.0815   -0.4744 C   0  0  0  0  0  0  0  0  0  0  0  0
    1.1081   -2.1784    0.2348 O   0  0  0  0  0  0  0  0  0  0  0  0
    3.0574   -0.7720    0.0019 C   0  0  0  0  0  0  0  0  0  0  0  0
    3.9296   -1.8163   -0.3386 O   0  0  0  0  0  0  0  0  0  0  0  0
    5.0573    2.7593   -0.7291 H   0  0  0  0  0  0  0  0  0  0  0  0
    5.8319    1.4566   -1.6768 H   0  0  0  0  0  0  0  0  0  0  0  0
    6.4761    1.8978   -0.0682 H   0  0  0  0  0  0  0  0  0  0  0  0
    3.7747    0.3130   -1.7256 H   0  0  0  0  0  0  0  0  0  0  0  0
    1.5577    1.0856   -2.1557 H   0  0  0  0  0  0  0  0  0  0  0  0
    0.4964    2.9063    0.0671 H   0  0  0  0  0  0  0  0  0  0  0  0
   -0.3618    2.4735   -1.4358 H   0  0  0  0  0  0  0  0  0  0  0  0
    2.0907    3.8499   -1.3485 H   0  0  0  0  0  0  0  0  0  0  0  0
    0.5909    0.4368    0.6679 H   0  0  0  0  0  0  0  0  0  0  0  0
   -2.3903   -0.6175   -0.9400 H   0  0  0  0  0  0  0  0  0  0  0  0
   -2.4452   -1.8136    2.4240 H   0  0  0  0  0  0  0  0  0  0  0  0
   -2.9220   -3.0312   -0.3398 H   0  0  0  0  0  0  0  0  0  0  0  0
   -3.6724   -3.5885    1.1794 H   0  0  0  0  0  0  0  0  0  0  0  0
   -0.8953   -3.5546    0.6653 H   0  0  0  0  0  0  0  0  0  0  0  0
   -4.2867   -1.1042    0.1075 H   0  0  0  0  0  0  0  0  0  0  0  0
   -4.6115   -1.0169    2.9042 H   0  0  0  0  0  0  0  0  0  0  0  0
   -3.5461    1.0299    2.1278 H   0  0  0  0  0  0  0  0  0  0  0  0
   -5.4637    1.1010    0.7629 H   0  0  0  0  0  0  0  0  0  0  0  0
   -2.4243    1.8236   -0.3290 H   0  0  0  0  0  0  0  0  0  0  0  0
   -1.1684    0.9609    2.0468 H   0  0  0  0  0  0  0  0  0  0  0  0
    1.6626   -1.4056   -1.5206 H   0  0  0  0  0  0  0  0  0  0  0  0
    0.9111   -1.9070    1.1442 H   0  0  0  0  0  0  0  0  0  0  0  0
    3.0615   -0.6057    1.0907 H   0  0  0  0  0  0  0  0  0  0  0  0
    3.5476   -2.6528   -0.0259 H   0  0  0  0  0  0  0  0  0  0  0  0
  1  2  1  0  0  0  0
  2  3  1  0  0  0  0
  3  4  1  0  0  0  0
  4  5  1  0  0  0  0
  5  6  1  0  0  0  0
  6  7  1  0  0  0  0
  5  8  1  0  0  0  0
  8  9  1  0  0  0  0
  9 10  1  0  0  0  0
 10 11  1  0  0  0  0
 11 12  1  0  0  0  0
 12 13  1  0  0  0  0
 13 14  1  0  0  0  0
 12 15  1  0  0  0  0
 15 16  1  0  0  0  0
 15 17  1  0  0  0  0
 17 18  1  0  0  0  0
 10 19  1  0  0  0  0
 17 19  1  0  0  0  0
 19 20  1  0  0  0  0
  8 21  1  0  0  0  0
 21 22  1  0  0  0  0
  3 23  1  0  0  0  0
 21 23  1  0  0  0  0
 23 24  1  0  0  0  0
  1 25  1  0  0  0  0
  1 26  1  0  0  0  0
  1 27  1  0  0  0  0
  3 28  1  0  0  0  0
  5 29  1  0  0  0  0
  6 30  1  0  0  0  0
  6 31  1  0  0  0  0
  7 32  1  0  0  0  0
  8 33  1  0  0  0  0
 10 34  1  0  0  0  0
 12 35  1  0  0  0  0
 13 36  1  0  0  0  0
 13 37  1  0  0  0  0
 14 38  1  0  0  0  0
 15 39  1  0  0  0  0
 16 40  1  0  0  0  0
 17 41  1  0  0  0  0
 18 42  1  0  0  0  0
 19 43  1  0  0  0  0
 20 44  1  0  0  0  0
 21 45  1  0  0  0  0
 22 46  1  0  0  0  0
 23 47  1  0  0  0  0
 24 48  1  0  0  0  0
M  END
