 xtb: 6.7.1 (edcfbbe)
          09212615463D

 48 49  0     0  0            999 V2000
    6.1245    0.1546    0.5429 C   0  0  0  0  0  0  0  0  0  0  0  0
    5.0820    0.4229   -0.3895 O   0  0  0  0  0  0  0  0  0  0  0  0
    3.8417    0.6424    0.1749 C   0  0  0  0  0  0  0  0  0  0  0  0
    3.3133   -0.5966    0.6055 O   0  0  0  0  0  0  0  0  0  0  0  0
    2.0410   -0.4880    1.2140 C   0  0  0  0  0  0  0  0  0  0  0  0
    1.6500   -1.8922    1.6926 C   0  0  0  0  0  0  0  0  0  0  0  0
    2.4818   -2.3610    2.7172 O   0  0  0  0  0  0  0  0  0  0  0  0
    0.9928    0.0811    0.2390 C   0  0  0  0  0  0  0  0  0  0  0  0
   -0.1814    0.3419    1.0116 O   0  0  0  0  0  0  0  0  0  0  0  0
   -1.4370   -0.0960    0.6150 C   0  0  0  0  0  0  0  0  0  0  0  0
   -2.0277    0.9144   -0.1915 O   0  0  0  0  0  0  0  0  0  0  0  0
   -3.4120    0.7223   -0.4782 C   0  0  0  0  0  0  0  0  0  0  0  0
   -4.1985    1.9134    0.1084 C   0  0  0  0  0  0  0  0  0  0  0  0
   -5.5500    1.8976   -0.2833 O   0  0  0  0  0  0  0  0  0  0  0  0
   -3.9892   -0.6061    0.0475 C   0  0  0  0  0  0  0  0  0  0  0  0
   -5.2105   -0.8944   -0.5863 O   0  0  0  0  0  0  0  0  0  0  0  0
   -3.0502   -1.8070   -0.1970 C   0  0  0  0  0  0  0  0  0  0  0  0
   -3.2309   -2.7877    0.7926 O   0  0  0  0  0  0  0  0  0  0  0  0
   -1.5581   -1.4054   -0.1804 C   0  0  0  0  0  0  0  0  0  0  0  0
   -1.0548   -1.2517   -1.4831 O   0  0  0  0  0  0  0  0  0  0  0  0
    1.4881    1.3875   -0.4035 C   0  0  0  0  0  0  0  0  0  0  0  0
    0.6639    1.8127   -1.4585 O   0  0  0  0  0  0  0  0  0  0  0  0
    2.9422    1.2709   -0.8948 C   0  0  0  0  0  0  0  0  0  0  0  0
    3.4610    2.5373   -1.2018 O   0  0  0  0  0  0  0  0  0  0  0  0
    5.9318   -0.7747    1.0803 H   0  0  0  0  0  0  0  0  0  0  0  0
    6.2208    0.9809    1.2526 H   0  0  0  0  0  0  0  0  0  0  0  0
    7.0272    0.0647   -0.0539 H   0  0  0  0  0  0  0  0  0  0  0  0
    3.9115    1.3334    1.0401 H   0  0  0  0  0  0  0  0  0  0  0  0
    2.1015    0.1869    2.0822 H   0  0  0  0  0  0  0  0  0  0  0  0
    1.6697   -2.5717    0.8314 H   0  0  0  0  0  0  0  0  0  0  0  0
    0.6426   -1.8530    2.1101 H   0  0  0  0  0  0  0  0  0  0  0  0
    3.3878   -2.4102    2.3809 H   0  0  0  0  0  0  0  0  0  0  0  0
    0.7999   -0.6569   -0.5449 H   0  0  0  0  0  0  0  0  0  0  0  0
   -1.9847   -0.1953    1.5635 H   0  0  0  0  0  0  0  0  0  0  0  0
   -3.5262    0.7265   -1.5722 H   0  0  0  0  0  0  0  0  0  0  0  0
   -3.6938    2.8374   -0.1855 H   0  0  0  0  0  0  0  0  0  0  0  0
   -4.1861    1.8486    1.1997 H   0  0  0  0  0  0  0  0  0  0  0  0
   -5.6384    2.2773   -1.1687 H   0  0  0  0  0  0  0  0  0  0  0  0
   -4.1442   -0.5217    1.1348 H   0  0  0  0  0  0  0  0  0  0  0  0
   -5.8162   -0.1459   -0.4388 H   0  0  0  0  0  0  0  0  0  0  0  0
   -3.2760   -2.2157   -1.1931 H   0  0  0  0  0  0  0  0  0  0  0  0
   -4.1355   -3.1307    0.7382 H   0  0  0  0  0  0  0  0  0  0  0  0
   -0.9971   -2.2145    0.2930 H   0  0  0  0  0  0  0  0  0  0  0  0
   -1.3746   -0.3993   -1.8234 H   0  0  0  0  0  0  0  0  0  0  0  0
    1.4291    2.1825    0.3480 H   0  0  0  0  0  0  0  0  0  0  0  0
    0.6514    1.1314   -2.1480 H   0  0  0  0  0  0  0  0  0  0  0  0
    2.9871    0.6103   -1.7755 H   0  0  0  0  0  0  0  0  0  0  0  0
    2.8303    2.9969   -1.7803 H   0  0  0  0  0  0  0  0  0  0  0  0
  1  2  1  0  0  0  0
  2  3  1  0  0  0  0
  3  4  1  0  0  0  0
  4  5  1  0  0  0  0
  5  6  1  0  0  0  0
  6  7  1  0  0  0  0
  5  8  1  0  0  0  0
  8  9  1  0  0  0  0
  9 10  1  0  0  0  0
 10 11  1  0  0  0  0
 11 12  1  0  0  0  0
 12 13  1  0  0  0  0
 13 14  1  0  0  0  0
 12 15  1  0  0  0  0
 15 16  1  0  0  0  0
 15 17  1  0  0  0  0
 17 18  1  0  0  0  0
 10 19  1  0  0  0  0
 17 19  1  0  0  0  0
 19 20  1  0  0  0  0
  8 21  1  0  0  0  0
 21 22  1  0  0  0  0
  3 23  1  0  0  0  0
 21 23  1  0  0  0  0
 23 24  1  0  0  0  0
  1 25  1  0  0  0  0
  1 26  1  0  0  0  0
  1 27  1  0  0  0  0
  3 28  1  0  0  0  0
  5 29  1  0  0  0  0
  6 30  1  0  0  0  0
  6 31  1  0  0  0  0
  7 32  1  0  0  0  0
  8 33  1  0  0  0  0
 10 34  1  0  0  0  0
 12 35  1  0  0  0  0
 13 36  1  0  0  0  0
 13 37  1  0  0  0  0
 14 38  1  0  0  0  0
 15 39  1  0  0  0  0
 16 40  1  0  0  0  0
 17 41  1  0  0  0  0
 18 42  1  0  0  0  0
 19 43  1  0  0  0  0
 20 44  1  0  0  0  0
 21 45  1  0  0  0  0
 22 46  1  0  0  0  0
 23 47  1  0  0  0  0
 24 48  1  0  0  0  0
M  END
