 xtb: 6.7.1 (edcfbbe)
          09222613263D

 48 49  0     0  0            999 V2000
    5.4658    2.0826   -0.4498 C   0  0  0  0  0  0  0  0  0  0  0  0
    4.8449    0.8277   -0.2495 O   0  0  0  0  0  0  0  0  0  0  0  0
    3.5554    0.7474   -0.7317 C   0  0  0  0  0  0  0  0  0  0  0  0
    2.7077    1.4896    0.1173 O   0  0  0  0  0  0  0  0  0  0  0  0
    1.3590    1.5170   -0.3064 C   0  0  0  0  0  0  0  0  0  0  0  0
    0.6103    2.4395    0.6612 C   0  0  0  0  0  0  0  0  0  0  0  0
    1.1652    3.7255    0.6758 O   0  0  0  0  0  0  0  0  0  0  0  0
    0.7538    0.1047   -0.3194 C   0  0  0  0  0  0  0  0  0  0  0  0
   -0.5011    0.1757   -0.9803 O   0  0  0  0  0  0  0  0  0  0  0  0
   -1.6254   -0.4024   -0.3952 C   0  0  0  0  0  0  0  0  0  0  0  0
   -1.3776   -0.8166    0.9215 O   0  0  0  0  0  0  0  0  0  0  0  0
   -2.3799   -1.6728    1.4466 C   0  0  0  0  0  0  0  0  0  0  0  0
   -2.2349   -3.1203    0.9214 C   0  0  0  0  0  0  0  0  0  0  0  0
   -0.9087   -3.5595    0.9465 O   0  0  0  0  0  0  0  0  0  0  0  0
   -3.7879   -1.1023    1.1913 C   0  0  0  0  0  0  0  0  0  0  0  0
   -4.6658   -1.2911    2.2723 O   0  0  0  0  0  0  0  0  0  0  0  0
   -3.6680    0.3908    0.8469 C   0  0  0  0  0  0  0  0  0  0  0  0
   -4.9357    0.9618    0.6428 O   0  0  0  0  0  0  0  0  0  0  0  0
   -2.8265    0.5924   -0.4261 C   0  0  0  0  0  0  0  0  0  0  0  0
   -2.3621    1.9082   -0.5056 O   0  0  0  0  0  0  0  0  0  0  0  0
    1.6519   -0.9114   -1.0443 C   0  0  0  0  0  0  0  0  0  0  0  0
    1.2665   -2.2400   -0.7423 O   0  0  0  0  0  0  0  0  0  0  0  0
    3.1463   -0.7310   -0.7347 C   0  0  0  0  0  0  0  0  0  0  0  0
    3.9237   -1.4013   -1.6890 O   0  0  0  0  0  0  0  0  0  0  0  0
    4.9354    2.8762    0.0833 H   0  0  0  0  0  0  0  0  0  0  0  0
    5.5087    2.3282   -1.5166 H   0  0  0  0  0  0  0  0  0  0  0  0
    6.4736    1.9818   -0.0542 H   0  0  0  0  0  0  0  0  0  0  0  0
    3.4835    1.1444   -1.7658 H   0  0  0  0  0  0  0  0  0  0  0  0
    1.2976    1.9282   -1.3262 H   0  0  0  0  0  0  0  0  0  0  0  0
    0.6459    1.9927    1.6656 H   0  0  0  0  0  0  0  0  0  0  0  0
   -0.4251    2.5333    0.3331 H   0  0  0  0  0  0  0  0  0  0  0  0
    2.1144    3.6219    0.8167 H   0  0  0  0  0  0  0  0  0  0  0  0
    0.6213   -0.2208    0.7183 H   0  0  0  0  0  0  0  0  0  0  0  0
   -1.9081   -1.2824   -1.0074 H   0  0  0  0  0  0  0  0  0  0  0  0
   -2.1681   -1.6731    2.5225 H   0  0  0  0  0  0  0  0  0  0  0  0
   -2.6532   -3.1941   -0.0923 H   0  0  0  0  0  0  0  0  0  0  0  0
   -2.8036   -3.7835    1.5763 H   0  0  0  0  0  0  0  0  0  0  0  0
   -0.4015   -3.0451    0.3004 H   0  0  0  0  0  0  0  0  0  0  0  0
   -4.2690   -1.6177    0.3518 H   0  0  0  0  0  0  0  0  0  0  0  0
   -4.2807   -0.9029    3.0687 H   0  0  0  0  0  0  0  0  0  0  0  0
   -3.1542    0.9062    1.6780 H   0  0  0  0  0  0  0  0  0  0  0  0
   -5.5641    0.4944    1.2110 H   0  0  0  0  0  0  0  0  0  0  0  0
   -3.4571    0.3590   -1.2972 H   0  0  0  0  0  0  0  0  0  0  0  0
   -3.1323    2.4899   -0.4774 H   0  0  0  0  0  0  0  0  0  0  0  0
    1.4918   -0.8008   -2.1224 H   0  0  0  0  0  0  0  0  0  0  0  0
    1.5429   -2.4402    0.1633 H   0  0  0  0  0  0  0  0  0  0  0  0
    3.3581   -1.1164    0.2784 H   0  0  0  0  0  0  0  0  0  0  0  0
    3.5668   -2.2933   -1.7934 H   0  0  0  0  0  0  0  0  0  0  0  0
  1  2  1  0  0  0  0
  2  3  1  0  0  0  0
  3  4  1  0  0  0  0
  4  5  1  0  0  0  0
  5  6  1  0  0  0  0
  6  7  1  0  0  0  0
  5  8  1  0  0  0  0
  8  9  1  0  0  0  0
  9 10  1  0  0  0  0
 10 11  1  0  0  0  0
 11 12  1  0  0  0  0
 12 13  1  0  0  0  0
 13 14  1  0  0  0  0
 12 15  1  0  0  0  0
 15 16  1  0  0  0  0
 15 17  1  0  0  0  0
 17 18  1  0  0  0  0
 10 19  1  0  0  0  0
 17 19  1  0  0  0  0
 19 20  1  0  0  0  0
  8 21  1  0  0  0  0
 21 22  1  0  0  0  0
  3 23  1  0  0  0  0
 21 23  1  0  0  0  0
 23 24  1  0  0  0  0
  1 25  1  0  0  0  0
  1 26  1  0  0  0  0
  1 27  1  0  0  0  0
  3 28  1  0  0  0  0
  5 29  1  0  0  0  0
  6 30  1  0  0  0  0
  6 31  1  0  0  0  0
  7 32  1  0  0  0  0
  8 33  1  0  0  0  0
 10 34  1  0  0  0  0
 12 35  1  0  0  0  0
 13 36  1  0  0  0  0
 13 37  1  0  0  0  0
 14 38  1  0  0  0  0
 15 39  1  0  0  0  0
 16 40  1  0  0  0  0
 17 41  1  0  0  0  0
 18 42  1  0  0  0  0
 19 43  1  0  0  0  0
 20 44  1  0  0  0  0
 21 45  1  0  0  0  0
 22 46  1  0  0  0  0
 23 47  1  0  0  0  0
 24 48  1  0  0  0  0
M  END
