 xtb: 6.7.1 (edcfbbe)
          09212615433D

 48 49  0     0  0            999 V2000
    5.5121    1.5837   -0.0124 C   0  0  0  0  0  0  0  0  0  0  0  0
    4.3272    1.4170   -0.7846 O   0  0  0  0  0  0  0  0  0  0  0  0
    3.1627    1.3282   -0.0483 C   0  0  0  0  0  0  0  0  0  0  0  0
    3.1153    0.0709    0.5913 O   0  0  0  0  0  0  0  0  0  0  0  0
    1.9544   -0.1084    1.3769 C   0  0  0  0  0  0  0  0  0  0  0  0
    2.1130   -1.4439    2.1143 C   0  0  0  0  0  0  0  0  0  0  0  0
    3.1005   -1.3918    3.1083 O   0  0  0  0  0  0  0  0  0  0  0  0
    0.6592   -0.0923    0.5340 C   0  0  0  0  0  0  0  0  0  0  0  0
   -0.3920   -0.0241    1.4957 O   0  0  0  0  0  0  0  0  0  0  0  0
   -1.5298   -0.8532    1.5669 C   0  0  0  0  0  0  0  0  0  0  0  0
   -2.6964   -0.0855    1.4516 O   0  0  0  0  0  0  0  0  0  0  0  0
   -3.0404    0.3300    0.1327 C   0  0  0  0  0  0  0  0  0  0  0  0
   -4.2926    1.2093    0.2659 C   0  0  0  0  0  0  0  0  0  0  0  0
   -4.6682    1.7841   -0.9616 O   0  0  0  0  0  0  0  0  0  0  0  0
   -3.3062   -0.8960   -0.7533 C   0  0  0  0  0  0  0  0  0  0  0  0
   -3.5861   -0.5527   -2.0871 O   0  0  0  0  0  0  0  0  0  0  0  0
   -2.0584   -1.7852   -0.7639 C   0  0  0  0  0  0  0  0  0  0  0  0
   -2.2971   -3.0188   -1.4003 O   0  0  0  0  0  0  0  0  0  0  0  0
   -1.6295   -2.1068    0.6739 C   0  0  0  0  0  0  0  0  0  0  0  0
   -0.4323   -2.8371    0.7172 O   0  0  0  0  0  0  0  0  0  0  0  0
    0.6388    1.1746   -0.3502 C   0  0  0  0  0  0  0  0  0  0  0  0
   -0.3607    1.1461   -1.3429 O   0  0  0  0  0  0  0  0  0  0  0  0
    1.9896    1.4766   -1.0206 C   0  0  0  0  0  0  0  0  0  0  0  0
    2.0096    2.7908   -1.5089 O   0  0  0  0  0  0  0  0  0  0  0  0
    5.7019    0.6986    0.5961 H   0  0  0  0  0  0  0  0  0  0  0  0
    5.4268    2.4650    0.6293 H   0  0  0  0  0  0  0  0  0  0  0  0
    6.3095    1.7217   -0.7366 H   0  0  0  0  0  0  0  0  0  0  0  0
    3.1080    2.1326    0.7142 H   0  0  0  0  0  0  0  0  0  0  0  0
    1.8749    0.7047    2.1152 H   0  0  0  0  0  0  0  0  0  0  0  0
    2.3345   -2.2232    1.3770 H   0  0  0  0  0  0  0  0  0  0  0  0
    1.1762   -1.6844    2.6165 H   0  0  0  0  0  0  0  0  0  0  0  0
    3.9508   -1.2005    2.6880 H   0  0  0  0  0  0  0  0  0  0  0  0
    0.6062   -0.9994   -0.0704 H   0  0  0  0  0  0  0  0  0  0  0  0
   -1.5531   -1.1885    2.6151 H   0  0  0  0  0  0  0  0  0  0  0  0
   -2.2225    0.9144   -0.3086 H   0  0  0  0  0  0  0  0  0  0  0  0
   -4.1040    1.9661    1.0328 H   0  0  0  0  0  0  0  0  0  0  0  0
   -5.1328    0.5923    0.5924 H   0  0  0  0  0  0  0  0  0  0  0  0
   -4.0493    2.4924   -1.1907 H   0  0  0  0  0  0  0  0  0  0  0  0
   -4.1408   -1.4709   -0.3175 H   0  0  0  0  0  0  0  0  0  0  0  0
   -4.2508    0.1593   -2.0905 H   0  0  0  0  0  0  0  0  0  0  0  0
   -1.2609   -1.2450   -1.2908 H   0  0  0  0  0  0  0  0  0  0  0  0
   -2.7284   -2.8473   -2.2510 H   0  0  0  0  0  0  0  0  0  0  0  0
   -2.4476   -2.7014    1.1124 H   0  0  0  0  0  0  0  0  0  0  0  0
   -0.5696   -3.6572    0.2159 H   0  0  0  0  0  0  0  0  0  0  0  0
    0.3766    2.0156    0.3029 H   0  0  0  0  0  0  0  0  0  0  0  0
   -0.0943    0.5498   -2.0598 H   0  0  0  0  0  0  0  0  0  0  0  0
    2.1685    0.7560   -1.8353 H   0  0  0  0  0  0  0  0  0  0  0  0
    1.2279    2.9337   -2.0675 H   0  0  0  0  0  0  0  0  0  0  0  0
  1  2  1  0  0  0  0
  2  3  1  0  0  0  0
  3  4  1  0  0  0  0
  4  5  1  0  0  0  0
  5  6  1  0  0  0  0
  6  7  1  0  0  0  0
  5  8  1  0  0  0  0
  8  9  1  0  0  0  0
  9 10  1  0  0  0  0
 10 11  1  0  0  0  0
 11 12  1  0  0  0  0
 12 13  1  0  0  0  0
 13 14  1  0  0  0  0
 12 15  1  0  0  0  0
 15 16  1  0  0  0  0
 15 17  1  0  0  0  0
 17 18  1  0  0  0  0
 10 19  1  0  0  0  0
 17 19  1  0  0  0  0
 19 20  1  0  0  0  0
  8 21  1  0  0  0  0
 21 22  1  0  0  0  0
  3 23  1  0  0  0  0
 21 23  1  0  0  0  0
 23 24  1  0  0  0  0
  1 25  1  0  0  0  0
  1 26  1  0  0  0  0
  1 27  1  0  0  0  0
  3 28  1  0  0  0  0
  5 29  1  0  0  0  0
  6 30  1  0  0  0  0
  6 31  1  0  0  0  0
  7 32  1  0  0  0  0
  8 33  1  0  0  0  0
 10 34  1  0  0  0  0
 12 35  1  0  0  0  0
 13 36  1  0  0  0  0
 13 37  1  0  0  0  0
 14 38  1  0  0  0  0
 15 39  1  0  0  0  0
 16 40  1  0  0  0  0
 17 41  1  0  0  0  0
 18 42  1  0  0  0  0
 19 43  1  0  0  0  0
 20 44  1  0  0  0  0
 21 45  1  0  0  0  0
 22 46  1  0  0  0  0
 23 47  1  0  0  0  0
 24 48  1  0  0  0  0
M  END
