 xtb: 6.7.1 (edcfbbe)
          09222613043D

 48 49  0     0  0            999 V2000
    1.3125    4.5972    0.9103 C   0  0  0  0  0  0  0  0  0  0  0  0
    1.7383    3.6168   -0.0269 O   0  0  0  0  0  0  0  0  0  0  0  0
    1.3331    2.3238    0.2749 C   0  0  0  0  0  0  0  0  0  0  0  0
    2.0289    1.8806    1.4161 O   0  0  0  0  0  0  0  0  0  0  0  0
    1.9879    0.4793    1.6741 C   0  0  0  0  0  0  0  0  0  0  0  0
    3.4077   -0.0964    1.5318 C   0  0  0  0  0  0  0  0  0  0  0  0
    4.3127    0.5830    2.3624 O   0  0  0  0  0  0  0  0  0  0  0  0
    0.9714   -0.2746    0.8069 C   0  0  0  0  0  0  0  0  0  0  0  0
   -0.3258    0.1362    1.2266 O   0  0  0  0  0  0  0  0  0  0  0  0
   -1.3749   -0.7519    1.5512 C   0  0  0  0  0  0  0  0  0  0  0  0
   -2.5353   -0.3602    0.8686 O   0  0  0  0  0  0  0  0  0  0  0  0
   -2.5231   -0.5971   -0.5305 C   0  0  0  0  0  0  0  0  0  0  0  0
   -3.8537   -0.0616   -1.0858 C   0  0  0  0  0  0  0  0  0  0  0  0
   -3.9047   -0.1321   -2.4892 O   0  0  0  0  0  0  0  0  0  0  0  0
   -2.3561   -2.0940   -0.8446 C   0  0  0  0  0  0  0  0  0  0  0  0
   -2.1785   -2.3230   -2.2195 O   0  0  0  0  0  0  0  0  0  0  0  0
   -1.1292   -2.6642   -0.1191 C   0  0  0  0  0  0  0  0  0  0  0  0
   -1.1198   -4.0724   -0.1573 O   0  0  0  0  0  0  0  0  0  0  0  0
   -1.1766   -2.2677    1.3620 C   0  0  0  0  0  0  0  0  0  0  0  0
   -0.0602   -2.7235    2.0773 O   0  0  0  0  0  0  0  0  0  0  0  0
    1.1974    0.0072   -0.6921 C   0  0  0  0  0  0  0  0  0  0  0  0
    2.1056   -0.9496   -1.1707 O   0  0  0  0  0  0  0  0  0  0  0  0
    1.6634    1.4509   -0.9427 C   0  0  0  0  0  0  0  0  0  0  0  0
    1.0163    1.9249   -2.0951 O   0  0  0  0  0  0  0  0  0  0  0  0
    1.7298    4.3958    1.8981 H   0  0  0  0  0  0  0  0  0  0  0  0
    0.2199    4.6120    0.9742 H   0  0  0  0  0  0  0  0  0  0  0  0
    1.6816    5.5462    0.5305 H   0  0  0  0  0  0  0  0  0  0  0  0
    0.2420    2.2925    0.4691 H   0  0  0  0  0  0  0  0  0  0  0  0
    1.6782    0.3792    2.7235 H   0  0  0  0  0  0  0  0  0  0  0  0
    3.7300   -0.0423    0.4847 H   0  0  0  0  0  0  0  0  0  0  0  0
    3.4114   -1.1411    1.8468 H   0  0  0  0  0  0  0  0  0  0  0  0
    4.1704    1.5315    2.2335 H   0  0  0  0  0  0  0  0  0  0  0  0
    1.1271   -1.3404    0.9817 H   0  0  0  0  0  0  0  0  0  0  0  0
   -1.6155   -0.5709    2.6103 H   0  0  0  0  0  0  0  0  0  0  0  0
   -1.6921   -0.0431   -0.9945 H   0  0  0  0  0  0  0  0  0  0  0  0
   -3.9978    0.9591   -0.7194 H   0  0  0  0  0  0  0  0  0  0  0  0
   -4.6721   -0.6806   -0.7114 H   0  0  0  0  0  0  0  0  0  0  0  0
   -3.3613    0.5700   -2.8710 H   0  0  0  0  0  0  0  0  0  0  0  0
   -3.2466   -2.6295   -0.4732 H   0  0  0  0  0  0  0  0  0  0  0  0
   -2.8915   -1.8637   -2.6965 H   0  0  0  0  0  0  0  0  0  0  0  0
   -0.2200   -2.2773   -0.5973 H   0  0  0  0  0  0  0  0  0  0  0  0
   -1.1901   -4.3508   -1.0803 H   0  0  0  0  0  0  0  0  0  0  0  0
   -2.0930   -2.7228    1.7770 H   0  0  0  0  0  0  0  0  0  0  0  0
    0.0236   -3.6748    1.9110 H   0  0  0  0  0  0  0  0  0  0  0  0
    0.2337   -0.0919   -1.2141 H   0  0  0  0  0  0  0  0  0  0  0  0
    2.2240   -0.8287   -2.1234 H   0  0  0  0  0  0  0  0  0  0  0  0
    2.7565    1.4724   -1.0760 H   0  0  0  0  0  0  0  0  0  0  0  0
    1.2140    2.8679   -2.1885 H   0  0  0  0  0  0  0  0  0  0  0  0
  1  2  1  0  0  0  0
  2  3  1  0  0  0  0
  3  4  1  0  0  0  0
  4  5  1  0  0  0  0
  5  6  1  0  0  0  0
  6  7  1  0  0  0  0
  5  8  1  0  0  0  0
  8  9  1  0  0  0  0
  9 10  1  0  0  0  0
 10 11  1  0  0  0  0
 11 12  1  0  0  0  0
 12 13  1  0  0  0  0
 13 14  1  0  0  0  0
 12 15  1  0  0  0  0
 15 16  1  0  0  0  0
 15 17  1  0  0  0  0
 17 18  1  0  0  0  0
 10 19  1  0  0  0  0
 17 19  1  0  0  0  0
 19 20  1  0  0  0  0
  8 21  1  0  0  0  0
 21 22  1  0  0  0  0
  3 23  1  0  0  0  0
 21 23  1  0  0  0  0
 23 24  1  0  0  0  0
  1 25  1  0  0  0  0
  1 26  1  0  0  0  0
  1 27  1  0  0  0  0
  3 28  1  0  0  0  0
  5 29  1  0  0  0  0
  6 30  1  0  0  0  0
  6 31  1  0  0  0  0
  7 32  1  0  0  0  0
  8 33  1  0  0  0  0
 10 34  1  0  0  0  0
 12 35  1  0  0  0  0
 13 36  1  0  0  0  0
 13 37  1  0  0  0  0
 14 38  1  0  0  0  0
 15 39  1  0  0  0  0
 16 40  1  0  0  0  0
 17 41  1  0  0  0  0
 18 42  1  0  0  0  0
 19 43  1  0  0  0  0
 20 44  1  0  0  0  0
 21 45  1  0  0  0  0
 22 46  1  0  0  0  0
 23 47  1  0  0  0  0
 24 48  1  0  0  0  0
M  END
