 xtb: 6.7.1 (edcfbbe)
          09222613113D

 48 49  0     0  0            999 V2000
    5.3215    1.5353   -0.2642 C   0  0  0  0  0  0  0  0  0  0  0  0
    4.5686    0.4716   -0.8324 O   0  0  0  0  0  0  0  0  0  0  0  0
    3.2543    0.7763   -1.1151 C   0  0  0  0  0  0  0  0  0  0  0  0
    2.5357    0.8598    0.1003 O   0  0  0  0  0  0  0  0  0  0  0  0
    1.1565    1.1332   -0.0569 C   0  0  0  0  0  0  0  0  0  0  0  0
    0.6104    1.4029    1.3454 C   0  0  0  0  0  0  0  0  0  0  0  0
    1.1155    2.5913    1.8862 O   0  0  0  0  0  0  0  0  0  0  0  0
    0.4756   -0.0258   -0.8110 C   0  0  0  0  0  0  0  0  0  0  0  0
   -0.9000    0.2399   -1.0239 O   0  0  0  0  0  0  0  0  0  0  0  0
   -1.8454   -0.7705   -0.7178 C   0  0  0  0  0  0  0  0  0  0  0  0
   -1.5212   -1.6334    0.3211 O   0  0  0  0  0  0  0  0  0  0  0  0
   -1.7564   -1.2244    1.6739 C   0  0  0  0  0  0  0  0  0  0  0  0
   -1.6280   -2.4930    2.5327 C   0  0  0  0  0  0  0  0  0  0  0  0
   -0.3184   -2.9915    2.5571 O   0  0  0  0  0  0  0  0  0  0  0  0
   -3.1301   -0.5714    1.8752 C   0  0  0  0  0  0  0  0  0  0  0  0
   -3.2925   -0.0717    3.1757 O   0  0  0  0  0  0  0  0  0  0  0  0
   -3.3487    0.5252    0.8230 C   0  0  0  0  0  0  0  0  0  0  0  0
   -4.6301    1.0931    0.9331 O   0  0  0  0  0  0  0  0  0  0  0  0
   -3.2270   -0.1140   -0.5615 C   0  0  0  0  0  0  0  0  0  0  0  0
   -3.4244    0.7996   -1.5991 O   0  0  0  0  0  0  0  0  0  0  0  0
    1.1729   -0.2244   -2.1675 C   0  0  0  0  0  0  0  0  0  0  0  0
    0.6783   -1.3372   -2.8702 O   0  0  0  0  0  0  0  0  0  0  0  0
    2.6983   -0.3385   -2.0098 C   0  0  0  0  0  0  0  0  0  0  0  0
    3.3296   -0.2450   -3.2581 O   0  0  0  0  0  0  0  0  0  0  0  0
    4.9373    1.8001    0.7229 H   0  0  0  0  0  0  0  0  0  0  0  0
    5.2992    2.4130   -0.9175 H   0  0  0  0  0  0  0  0  0  0  0  0
    6.3376    1.1593   -0.1799 H   0  0  0  0  0  0  0  0  0  0  0  0
    3.1696    1.7429   -1.6564 H   0  0  0  0  0  0  0  0  0  0  0  0
    1.0264    2.0478   -0.6605 H   0  0  0  0  0  0  0  0  0  0  0  0
    0.8620    0.5489    1.9890 H   0  0  0  0  0  0  0  0  0  0  0  0
   -0.4697    1.5378    1.2770 H   0  0  0  0  0  0  0  0  0  0  0  0
    2.0796    2.5313    1.9025 H   0  0  0  0  0  0  0  0  0  0  0  0
    0.5886   -0.9417   -0.2126 H   0  0  0  0  0  0  0  0  0  0  0  0
   -1.8927   -1.4415   -1.5968 H   0  0  0  0  0  0  0  0  0  0  0  0
   -0.9786   -0.5143    1.9811 H   0  0  0  0  0  0  0  0  0  0  0  0
   -2.3305   -3.2445    2.1531 H   0  0  0  0  0  0  0  0  0  0  0  0
   -1.8871   -2.2467    3.5642 H   0  0  0  0  0  0  0  0  0  0  0  0
   -0.0912   -3.2921    1.6684 H   0  0  0  0  0  0  0  0  0  0  0  0
   -3.9183   -1.3247    1.7569 H   0  0  0  0  0  0  0  0  0  0  0  0
   -2.5799    0.5471    3.3892 H   0  0  0  0  0  0  0  0  0  0  0  0
   -2.5814    1.3112    0.9244 H   0  0  0  0  0  0  0  0  0  0  0  0
   -4.8467    1.1791    1.8732 H   0  0  0  0  0  0  0  0  0  0  0  0
   -3.9781   -0.9217   -0.6210 H   0  0  0  0  0  0  0  0  0  0  0  0
   -4.1941    1.3402   -1.3654 H   0  0  0  0  0  0  0  0  0  0  0  0
    0.9385    0.6382   -2.8017 H   0  0  0  0  0  0  0  0  0  0  0  0
    0.8062   -2.1388   -2.3433 H   0  0  0  0  0  0  0  0  0  0  0  0
    2.9491   -1.2955   -1.5215 H   0  0  0  0  0  0  0  0  0  0  0  0
    2.8592   -0.8230   -3.8781 H   0  0  0  0  0  0  0  0  0  0  0  0
  1  2  1  0  0  0  0
  2  3  1  0  0  0  0
  3  4  1  0  0  0  0
  4  5  1  0  0  0  0
  5  6  1  0  0  0  0
  6  7  1  0  0  0  0
  5  8  1  0  0  0  0
  8  9  1  0  0  0  0
  9 10  1  0  0  0  0
 10 11  1  0  0  0  0
 11 12  1  0  0  0  0
 12 13  1  0  0  0  0
 13 14  1  0  0  0  0
 12 15  1  0  0  0  0
 15 16  1  0  0  0  0
 15 17  1  0  0  0  0
 17 18  1  0  0  0  0
 10 19  1  0  0  0  0
 17 19  1  0  0  0  0
 19 20  1  0  0  0  0
  8 21  1  0  0  0  0
 21 22  1  0  0  0  0
  3 23  1  0  0  0  0
 21 23  1  0  0  0  0
 23 24  1  0  0  0  0
  1 25  1  0  0  0  0
  1 26  1  0  0  0  0
  1 27  1  0  0  0  0
  3 28  1  0  0  0  0
  5 29  1  0  0  0  0
  6 30  1  0  0  0  0
  6 31  1  0  0  0  0
  7 32  1  0  0  0  0
  8 33  1  0  0  0  0
 10 34  1  0  0  0  0
 12 35  1  0  0  0  0
 13 36  1  0  0  0  0
 13 37  1  0  0  0  0
 14 38  1  0  0  0  0
 15 39  1  0  0  0  0
 16 40  1  0  0  0  0
 17 41  1  0  0  0  0
 18 42  1  0  0  0  0
 19 43  1  0  0  0  0
 20 44  1  0  0  0  0
 21 45  1  0  0  0  0
 22 46  1  0  0  0  0
 23 47  1  0  0  0  0
 24 48  1  0  0  0  0
M  END
