 xtb: 6.7.1 (edcfbbe)
          09192616443D

 48 49  0     0  0            999 V2000
    5.7452    0.7427    0.6596 C   0  0  0  0  0  0  0  0  0  0  0  0
    4.9509   -0.3661    0.2450 O   0  0  0  0  0  0  0  0  0  0  0  0
    3.7179   -0.0259   -0.2713 C   0  0  0  0  0  0  0  0  0  0  0  0
    2.9136    0.4543    0.7904 O   0  0  0  0  0  0  0  0  0  0  0  0
    1.5768    0.7599    0.4474 C   0  0  0  0  0  0  0  0  0  0  0  0
    0.9373    1.3286    1.7295 C   0  0  0  0  0  0  0  0  0  0  0  0
   -0.1430    2.1899    1.4971 O   0  0  0  0  0  0  0  0  0  0  0  0
    0.8751   -0.5052   -0.0680 C   0  0  0  0  0  0  0  0  0  0  0  0
   -0.4517   -0.2105   -0.4783 O   0  0  0  0  0  0  0  0  0  0  0  0
   -1.3903   -1.2253   -0.2267 C   0  0  0  0  0  0  0  0  0  0  0  0
   -1.8861   -1.1444    1.0810 O   0  0  0  0  0  0  0  0  0  0  0  0
   -2.5790    0.0866    1.3130 C   0  0  0  0  0  0  0  0  0  0  0  0
   -2.9432    0.1725    2.8017 C   0  0  0  0  0  0  0  0  0  0  0  0
   -2.9412    1.4973    3.2661 O   0  0  0  0  0  0  0  0  0  0  0  0
   -3.7912    0.1816    0.3785 C   0  0  0  0  0  0  0  0  0  0  0  0
   -4.5940    1.3100    0.6079 O   0  0  0  0  0  0  0  0  0  0  0  0
   -3.2913    0.1546   -1.0789 C   0  0  0  0  0  0  0  0  0  0  0  0
   -4.3603    0.1746   -1.9944 O   0  0  0  0  0  0  0  0  0  0  0  0
   -2.4946   -1.1338   -1.2877 C   0  0  0  0  0  0  0  0  0  0  0  0
   -1.8712   -1.2106   -2.5416 O   0  0  0  0  0  0  0  0  0  0  0  0
    1.6533   -1.0151   -1.2981 C   0  0  0  0  0  0  0  0  0  0  0  0
    1.1216   -2.2094   -1.8223 O   0  0  0  0  0  0  0  0  0  0  0  0
    3.1196   -1.2738   -0.9340 C   0  0  0  0  0  0  0  0  0  0  0  0
    3.8813   -1.5444   -2.0779 O   0  0  0  0  0  0  0  0  0  0  0  0
    5.2513    1.2858    1.4669 H   0  0  0  0  0  0  0  0  0  0  0  0
    5.9283    1.4131   -0.1847 H   0  0  0  0  0  0  0  0  0  0  0  0
    6.6791    0.3120    1.0078 H   0  0  0  0  0  0  0  0  0  0  0  0
    3.8145    0.7667   -1.0433 H   0  0  0  0  0  0  0  0  0  0  0  0
    1.5542    1.5169   -0.3525 H   0  0  0  0  0  0  0  0  0  0  0  0
    1.7334    1.8290    2.2917 H   0  0  0  0  0  0  0  0  0  0  0  0
    0.5529    0.5040    2.3333 H   0  0  0  0  0  0  0  0  0  0  0  0
    0.1722    3.0060    1.0814 H   0  0  0  0  0  0  0  0  0  0  0  0
    0.8746   -1.2661    0.7202 H   0  0  0  0  0  0  0  0  0  0  0  0
   -0.9179   -2.2145   -0.2845 H   0  0  0  0  0  0  0  0  0  0  0  0
   -1.8945    0.9159    1.0786 H   0  0  0  0  0  0  0  0  0  0  0  0
   -2.2325   -0.4507    3.3575 H   0  0  0  0  0  0  0  0  0  0  0  0
   -3.9526   -0.2051    2.9730 H   0  0  0  0  0  0  0  0  0  0  0  0
   -2.0524    1.8706    3.1623 H   0  0  0  0  0  0  0  0  0  0  0  0
   -4.4412   -0.6889    0.5358 H   0  0  0  0  0  0  0  0  0  0  0  0
   -4.0453    2.0651    0.8649 H   0  0  0  0  0  0  0  0  0  0  0  0
   -2.6249    1.0132   -1.2568 H   0  0  0  0  0  0  0  0  0  0  0  0
   -5.0342    0.7857   -1.6573 H   0  0  0  0  0  0  0  0  0  0  0  0
   -3.1765   -1.9866   -1.1456 H   0  0  0  0  0  0  0  0  0  0  0  0
   -2.5301   -0.9990   -3.2217 H   0  0  0  0  0  0  0  0  0  0  0  0
    1.6212   -0.2262   -2.0643 H   0  0  0  0  0  0  0  0  0  0  0  0
    0.2880   -2.0137   -2.2798 H   0  0  0  0  0  0  0  0  0  0  0  0
    3.1794   -2.1035   -0.2158 H   0  0  0  0  0  0  0  0  0  0  0  0
    3.4974   -2.3177   -2.5217 H   0  0  0  0  0  0  0  0  0  0  0  0
  1  2  1  0  0  0  0
  2  3  1  0  0  0  0
  3  4  1  0  0  0  0
  4  5  1  0  0  0  0
  5  6  1  0  0  0  0
  6  7  1  0  0  0  0
  5  8  1  0  0  0  0
  8  9  1  0  0  0  0
  9 10  1  0  0  0  0
 10 11  1  0  0  0  0
 11 12  1  0  0  0  0
 12 13  1  0  0  0  0
 13 14  1  0  0  0  0
 12 15  1  0  0  0  0
 15 16  1  0  0  0  0
 15 17  1  0  0  0  0
 17 18  1  0  0  0  0
 10 19  1  0  0  0  0
 17 19  1  0  0  0  0
 19 20  1  0  0  0  0
  8 21  1  0  0  0  0
 21 22  1  0  0  0  0
  3 23  1  0  0  0  0
 21 23  1  0  0  0  0
 23 24  1  0  0  0  0
  1 25  1  0  0  0  0
  1 26  1  0  0  0  0
  1 27  1  0  0  0  0
  3 28  1  0  0  0  0
  5 29  1  0  0  0  0
  6 30  1  0  0  0  0
  6 31  1  0  0  0  0
  7 32  1  0  0  0  0
  8 33  1  0  0  0  0
 10 34  1  0  0  0  0
 12 35  1  0  0  0  0
 13 36  1  0  0  0  0
 13 37  1  0  0  0  0
 14 38  1  0  0  0  0
 15 39  1  0  0  0  0
 16 40  1  0  0  0  0
 17 41  1  0  0  0  0
 18 42  1  0  0  0  0
 19 43  1  0  0  0  0
 20 44  1  0  0  0  0
 21 45  1  0  0  0  0
 22 46  1  0  0  0  0
 23 47  1  0  0  0  0
 24 48  1  0  0  0  0
M  END
