 xtb: 6.7.1 (edcfbbe)
          09222613263D

 48 49  0     0  0            999 V2000
    5.3811    1.4727   -0.5536 C   0  0  0  0  0  0  0  0  0  0  0  0
    4.6503    0.2630   -0.5597 O   0  0  0  0  0  0  0  0  0  0  0  0
    3.3433    0.3853   -0.9765 C   0  0  0  0  0  0  0  0  0  0  0  0
    2.6128    1.0397    0.0405 O   0  0  0  0  0  0  0  0  0  0  0  0
    1.2430    1.2719   -0.2161 C   0  0  0  0  0  0  0  0  0  0  0  0
    0.7403    1.9113    1.0881 C   0  0  0  0  0  0  0  0  0  0  0  0
    1.3191    3.1694    1.2905 O   0  0  0  0  0  0  0  0  0  0  0  0
    0.4919   -0.0204   -0.5767 C   0  0  0  0  0  0  0  0  0  0  0  0
   -0.7380    0.2920   -1.2323 O   0  0  0  0  0  0  0  0  0  0  0  0
   -1.9604   -0.3136   -0.8077 C   0  0  0  0  0  0  0  0  0  0  0  0
   -1.7940   -1.3293    0.1156 O   0  0  0  0  0  0  0  0  0  0  0  0
   -1.9744   -0.9381    1.4780 C   0  0  0  0  0  0  0  0  0  0  0  0
   -1.5367   -2.1354    2.3284 C   0  0  0  0  0  0  0  0  0  0  0  0
   -0.1839   -2.4427    2.1361 O   0  0  0  0  0  0  0  0  0  0  0  0
   -3.4323   -0.5144    1.7468 C   0  0  0  0  0  0  0  0  0  0  0  0
   -3.5050    0.4021    2.8004 O   0  0  0  0  0  0  0  0  0  0  0  0
   -4.0686    0.0640    0.4596 C   0  0  0  0  0  0  0  0  0  0  0  0
   -4.6630   -0.9118   -0.3555 O   0  0  0  0  0  0  0  0  0  0  0  0
   -2.9963    0.7570   -0.3884 C   0  0  0  0  0  0  0  0  0  0  0  0
   -2.4488    1.8160    0.3525 O   0  0  0  0  0  0  0  0  0  0  0  0
    1.2845   -0.9158   -1.5451 C   0  0  0  0  0  0  0  0  0  0  0  0
    0.7716   -2.2313   -1.5302 O   0  0  0  0  0  0  0  0  0  0  0  0
    2.7751   -1.0169   -1.2073 C   0  0  0  0  0  0  0  0  0  0  0  0
    3.4691   -1.6130   -2.2667 O   0  0  0  0  0  0  0  0  0  0  0  0
    4.9659    2.1839    0.1659 H   0  0  0  0  0  0  0  0  0  0  0  0
    5.3885    1.9283   -1.5502 H   0  0  0  0  0  0  0  0  0  0  0  0
    6.3945    1.2060   -0.2637 H   0  0  0  0  0  0  0  0  0  0  0  0
    3.2721    0.9691   -1.9189 H   0  0  0  0  0  0  0  0  0  0  0  0
    1.1334    1.9795   -1.0555 H   0  0  0  0  0  0  0  0  0  0  0  0
    0.9958    1.2269    1.9100 H   0  0  0  0  0  0  0  0  0  0  0  0
   -0.3361    2.0713    1.0695 H   0  0  0  0  0  0  0  0  0  0  0  0
    2.2763    3.0508    1.2665 H   0  0  0  0  0  0  0  0  0  0  0  0
    0.3285   -0.5971    0.3380 H   0  0  0  0  0  0  0  0  0  0  0  0
   -2.3694   -0.8064   -1.7066 H   0  0  0  0  0  0  0  0  0  0  0  0
   -1.3274   -0.0811    1.7123 H   0  0  0  0  0  0  0  0  0  0  0  0
   -2.1747   -2.9943    2.0824 H   0  0  0  0  0  0  0  0  0  0  0  0
   -1.6564   -1.8842    3.3837 H   0  0  0  0  0  0  0  0  0  0  0  0
   -0.0596   -2.7174    1.2183 H   0  0  0  0  0  0  0  0  0  0  0  0
   -4.0161   -1.3858    2.0672 H   0  0  0  0  0  0  0  0  0  0  0  0
   -3.0762    1.2222    2.5185 H   0  0  0  0  0  0  0  0  0  0  0  0
   -4.8070    0.8198    0.7704 H   0  0  0  0  0  0  0  0  0  0  0  0
   -5.3606   -1.3538    0.1424 H   0  0  0  0  0  0  0  0  0  0  0  0
   -3.4670    1.1361   -1.3043 H   0  0  0  0  0  0  0  0  0  0  0  0
   -1.8614    2.3072   -0.2361 H   0  0  0  0  0  0  0  0  0  0  0  0
    1.1900   -0.4856   -2.5560 H   0  0  0  0  0  0  0  0  0  0  0  0
   -0.1895   -2.1857   -1.6004 H   0  0  0  0  0  0  0  0  0  0  0  0
    2.9016   -1.5891   -0.2770 H   0  0  0  0  0  0  0  0  0  0  0  0
    3.0741   -2.4818   -2.4135 H   0  0  0  0  0  0  0  0  0  0  0  0
  1  2  1  0  0  0  0
  2  3  1  0  0  0  0
  3  4  1  0  0  0  0
  4  5  1  0  0  0  0
  5  6  1  0  0  0  0
  6  7  1  0  0  0  0
  5  8  1  0  0  0  0
  8  9  1  0  0  0  0
  9 10  1  0  0  0  0
 10 11  1  0  0  0  0
 11 12  1  0  0  0  0
 12 13  1  0  0  0  0
 13 14  1  0  0  0  0
 12 15  1  0  0  0  0
 15 16  1  0  0  0  0
 15 17  1  0  0  0  0
 17 18  1  0  0  0  0
 10 19  1  0  0  0  0
 17 19  1  0  0  0  0
 19 20  1  0  0  0  0
  8 21  1  0  0  0  0
 21 22  1  0  0  0  0
  3 23  1  0  0  0  0
 21 23  1  0  0  0  0
 23 24  1  0  0  0  0
  1 25  1  0  0  0  0
  1 26  1  0  0  0  0
  1 27  1  0  0  0  0
  3 28  1  0  0  0  0
  5 29  1  0  0  0  0
  6 30  1  0  0  0  0
  6 31  1  0  0  0  0
  7 32  1  0  0  0  0
  8 33  1  0  0  0  0
 10 34  1  0  0  0  0
 12 35  1  0  0  0  0
 13 36  1  0  0  0  0
 13 37  1  0  0  0  0
 14 38  1  0  0  0  0
 15 39  1  0  0  0  0
 16 40  1  0  0  0  0
 17 41  1  0  0  0  0
 18 42  1  0  0  0  0
 19 43  1  0  0  0  0
 20 44  1  0  0  0  0
 21 45  1  0  0  0  0
 22 46  1  0  0  0  0
 23 47  1  0  0  0  0
 24 48  1  0  0  0  0
M  END
