 xtb: 6.7.1 (edcfbbe)
          09222613123D

 48 49  0     0  0            999 V2000
    3.8452   -0.6333    0.9602 C   0  0  0  0  0  0  0  0  0  0  0  0
    3.1962   -0.8521   -0.2859 O   0  0  0  0  0  0  0  0  0  0  0  0
    3.1936    0.2642   -1.1353 C   0  0  0  0  0  0  0  0  0  0  0  0
    2.4919    1.3512   -0.6094 O   0  0  0  0  0  0  0  0  0  0  0  0
    1.0871    1.4154   -0.8738 C   0  0  0  0  0  0  0  0  0  0  0  0
    0.5048    2.2206    0.2933 C   0  0  0  0  0  0  0  0  0  0  0  0
    0.9279    3.5577    0.2632 O   0  0  0  0  0  0  0  0  0  0  0  0
    0.4834    0.0137   -1.0235 C   0  0  0  0  0  0  0  0  0  0  0  0
   -0.9003    0.0893   -1.3241 O   0  0  0  0  0  0  0  0  0  0  0  0
   -1.8286   -0.6905   -0.5647 C   0  0  0  0  0  0  0  0  0  0  0  0
   -1.3131   -1.2733    0.5786 O   0  0  0  0  0  0  0  0  0  0  0  0
   -1.4866   -0.4994    1.7692 C   0  0  0  0  0  0  0  0  0  0  0  0
   -0.7022   -1.2024    2.8829 C   0  0  0  0  0  0  0  0  0  0  0  0
    0.6650   -1.3115    2.5804 O   0  0  0  0  0  0  0  0  0  0  0  0
   -2.9797   -0.3470    2.1320 C   0  0  0  0  0  0  0  0  0  0  0  0
   -3.2097    0.8446    2.8330 O   0  0  0  0  0  0  0  0  0  0  0  0
   -3.8579   -0.4283    0.8608 C   0  0  0  0  0  0  0  0  0  0  0  0
   -4.2150   -1.7380    0.5099 O   0  0  0  0  0  0  0  0  0  0  0  0
   -3.0945    0.1671   -0.3275 C   0  0  0  0  0  0  0  0  0  0  0  0
   -2.8098    1.5117   -0.0423 O   0  0  0  0  0  0  0  0  0  0  0  0
    1.1813   -0.7570   -2.1760 C   0  0  0  0  0  0  0  0  0  0  0  0
    1.2226   -2.1356   -1.9290 O   0  0  0  0  0  0  0  0  0  0  0  0
    2.5889   -0.2030   -2.4671 C   0  0  0  0  0  0  0  0  0  0  0  0
    2.4877    0.8418   -3.3952 O   0  0  0  0  0  0  0  0  0  0  0  0
    3.3151    0.1186    1.5478 H   0  0  0  0  0  0  0  0  0  0  0  0
    4.8778   -0.3116    0.7981 H   0  0  0  0  0  0  0  0  0  0  0  0
    3.8262   -1.5867    1.4803 H   0  0  0  0  0  0  0  0  0  0  0  0
    4.2270    0.6357   -1.2619 H   0  0  0  0  0  0  0  0  0  0  0  0
    0.9252    1.9658   -1.8117 H   0  0  0  0  0  0  0  0  0  0  0  0
    0.8138    1.7402    1.2337 H   0  0  0  0  0  0  0  0  0  0  0  0
   -0.5829    2.2447    0.2300 H   0  0  0  0  0  0  0  0  0  0  0  0
    1.8938    3.5659    0.2371 H   0  0  0  0  0  0  0  0  0  0  0  0
    0.6385   -0.5413   -0.0913 H   0  0  0  0  0  0  0  0  0  0  0  0
   -2.1146   -1.5490   -1.1976 H   0  0  0  0  0  0  0  0  0  0  0  0
   -1.0690    0.5035    1.6167 H   0  0  0  0  0  0  0  0  0  0  0  0
   -1.1407   -2.1927    3.0559 H   0  0  0  0  0  0  0  0  0  0  0  0
   -0.7779   -0.6068    3.7945 H   0  0  0  0  0  0  0  0  0  0  0  0
    0.7473   -1.9015    1.8204 H   0  0  0  0  0  0  0  0  0  0  0  0
   -3.2737   -1.1523    2.8150 H   0  0  0  0  0  0  0  0  0  0  0  0
   -3.0599    1.5892    2.2314 H   0  0  0  0  0  0  0  0  0  0  0  0
   -4.7512    0.1901    1.0394 H   0  0  0  0  0  0  0  0  0  0  0  0
   -4.7670   -2.1193    1.2062 H   0  0  0  0  0  0  0  0  0  0  0  0
   -3.7207    0.0858   -1.2243 H   0  0  0  0  0  0  0  0  0  0  0  0
   -2.4645    1.9218   -0.8464 H   0  0  0  0  0  0  0  0  0  0  0  0
    0.5723   -0.6224   -3.0767 H   0  0  0  0  0  0  0  0  0  0  0  0
    1.8408   -2.2903   -1.1989 H   0  0  0  0  0  0  0  0  0  0  0  0
    3.1970   -1.0301   -2.8616 H   0  0  0  0  0  0  0  0  0  0  0  0
    3.3689    1.1368   -3.6624 H   0  0  0  0  0  0  0  0  0  0  0  0
  1  2  1  0  0  0  0
  2  3  1  0  0  0  0
  3  4  1  0  0  0  0
  4  5  1  0  0  0  0
  5  6  1  0  0  0  0
  6  7  1  0  0  0  0
  5  8  1  0  0  0  0
  8  9  1  0  0  0  0
  9 10  1  0  0  0  0
 10 11  1  0  0  0  0
 11 12  1  0  0  0  0
 12 13  1  0  0  0  0
 13 14  1  0  0  0  0
 12 15  1  0  0  0  0
 15 16  1  0  0  0  0
 15 17  1  0  0  0  0
 17 18  1  0  0  0  0
 10 19  1  0  0  0  0
 17 19  1  0  0  0  0
 19 20  1  0  0  0  0
  8 21  1  0  0  0  0
 21 22  1  0  0  0  0
  3 23  1  0  0  0  0
 21 23  1  0  0  0  0
 23 24  1  0  0  0  0
  1 25  1  0  0  0  0
  1 26  1  0  0  0  0
  1 27  1  0  0  0  0
  3 28  1  0  0  0  0
  5 29  1  0  0  0  0
  6 30  1  0  0  0  0
  6 31  1  0  0  0  0
  7 32  1  0  0  0  0
  8 33  1  0  0  0  0
 10 34  1  0  0  0  0
 12 35  1  0  0  0  0
 13 36  1  0  0  0  0
 13 37  1  0  0  0  0
 14 38  1  0  0  0  0
 15 39  1  0  0  0  0
 16 40  1  0  0  0  0
 17 41  1  0  0  0  0
 18 42  1  0  0  0  0
 19 43  1  0  0  0  0
 20 44  1  0  0  0  0
 21 45  1  0  0  0  0
 22 46  1  0  0  0  0
 23 47  1  0  0  0  0
 24 48  1  0  0  0  0
M  END
