 xtb: 6.7.1 (edcfbbe)
          09222613203D

 48 49  0     0  0            999 V2000
    5.4378    2.4307   -0.3588 C   0  0  0  0  0  0  0  0  0  0  0  0
    4.6698    1.3629   -0.8812 O   0  0  0  0  0  0  0  0  0  0  0  0
    3.3156    1.4843   -0.6647 C   0  0  0  0  0  0  0  0  0  0  0  0
    3.0619    1.3094    0.7187 O   0  0  0  0  0  0  0  0  0  0  0  0
    1.6986    1.3316    1.0484 C   0  0  0  0  0  0  0  0  0  0  0  0
    1.5806    1.3205    2.5810 C   0  0  0  0  0  0  0  0  0  0  0  0
    0.3505    1.8137    3.0283 O   0  0  0  0  0  0  0  0  0  0  0  0
    0.9692    0.1297    0.4008 C   0  0  0  0  0  0  0  0  0  0  0  0
   -0.3831    0.1671    0.8478 O   0  0  0  0  0  0  0  0  0  0  0  0
   -0.9709   -0.9930    1.3900 C   0  0  0  0  0  0  0  0  0  0  0  0
   -2.2665   -0.6376    1.7682 O   0  0  0  0  0  0  0  0  0  0  0  0
   -3.1267   -0.2996    0.6901 C   0  0  0  0  0  0  0  0  0  0  0  0
   -4.4404    0.1961    1.3112 C   0  0  0  0  0  0  0  0  0  0  0  0
   -5.3447    0.6563    0.3349 O   0  0  0  0  0  0  0  0  0  0  0  0
   -3.3537   -1.5230   -0.2117 C   0  0  0  0  0  0  0  0  0  0  0  0
   -4.1382   -1.2288   -1.3388 O   0  0  0  0  0  0  0  0  0  0  0  0
   -1.9898   -2.0113   -0.7062 C   0  0  0  0  0  0  0  0  0  0  0  0
   -2.0875   -3.2407   -1.3917 O   0  0  0  0  0  0  0  0  0  0  0  0
   -1.0652   -2.2471    0.4920 C   0  0  0  0  0  0  0  0  0  0  0  0
    0.1984   -2.7100    0.0746 O   0  0  0  0  0  0  0  0  0  0  0  0
    1.1090    0.2880   -1.1174 C   0  0  0  0  0  0  0  0  0  0  0  0
    0.5483   -0.7527   -1.8738 O   0  0  0  0  0  0  0  0  0  0  0  0
    2.6010    0.4116   -1.4937 C   0  0  0  0  0  0  0  0  0  0  0  0
    2.7098    0.7484   -2.8487 O   0  0  0  0  0  0  0  0  0  0  0  0
    5.3335    2.4921    0.7271 H   0  0  0  0  0  0  0  0  0  0  0  0
    5.1331    3.3822   -0.8087 H   0  0  0  0  0  0  0  0  0  0  0  0
    6.4695    2.2118   -0.6228 H   0  0  0  0  0  0  0  0  0  0  0  0
    2.9448    2.4841   -0.9776 H   0  0  0  0  0  0  0  0  0  0  0  0
    1.2304    2.2585    0.6759 H   0  0  0  0  0  0  0  0  0  0  0  0
    2.3506    1.9784    2.9893 H   0  0  0  0  0  0  0  0  0  0  0  0
    1.7646    0.3014    2.9506 H   0  0  0  0  0  0  0  0  0  0  0  0
   -0.3517    1.3382    2.5626 H   0  0  0  0  0  0  0  0  0  0  0  0
    1.4512   -0.7987    0.7257 H   0  0  0  0  0  0  0  0  0  0  0  0
   -0.4511   -1.2756    2.3198 H   0  0  0  0  0  0  0  0  0  0  0  0
   -2.6737    0.5028    0.0886 H   0  0  0  0  0  0  0  0  0  0  0  0
   -4.2115    0.9710    2.0501 H   0  0  0  0  0  0  0  0  0  0  0  0
   -4.9361   -0.6321    1.8218 H   0  0  0  0  0  0  0  0  0  0  0  0
   -5.0094    1.4767   -0.0457 H   0  0  0  0  0  0  0  0  0  0  0  0
   -3.8233   -2.3214    0.3885 H   0  0  0  0  0  0  0  0  0  0  0  0
   -4.9223   -0.7433   -1.0370 H   0  0  0  0  0  0  0  0  0  0  0  0
   -1.5667   -1.2446   -1.3701 H   0  0  0  0  0  0  0  0  0  0  0  0
   -2.7822   -3.1391   -2.0527 H   0  0  0  0  0  0  0  0  0  0  0  0
   -1.5387   -3.0130    1.1280 H   0  0  0  0  0  0  0  0  0  0  0  0
    0.0206   -3.4831   -0.4810 H   0  0  0  0  0  0  0  0  0  0  0  0
    0.5897    1.2022   -1.4329 H   0  0  0  0  0  0  0  0  0  0  0  0
    0.6991   -1.5853   -1.3939 H   0  0  0  0  0  0  0  0  0  0  0  0
    3.1034   -0.5485   -1.2907 H   0  0  0  0  0  0  0  0  0  0  0  0
    2.0925    0.1789   -3.3304 H   0  0  0  0  0  0  0  0  0  0  0  0
  1  2  1  0  0  0  0
  2  3  1  0  0  0  0
  3  4  1  0  0  0  0
  4  5  1  0  0  0  0
  5  6  1  0  0  0  0
  6  7  1  0  0  0  0
  5  8  1  0  0  0  0
  8  9  1  0  0  0  0
  9 10  1  0  0  0  0
 10 11  1  0  0  0  0
 11 12  1  0  0  0  0
 12 13  1  0  0  0  0
 13 14  1  0  0  0  0
 12 15  1  0  0  0  0
 15 16  1  0  0  0  0
 15 17  1  0  0  0  0
 17 18  1  0  0  0  0
 10 19  1  0  0  0  0
 17 19  1  0  0  0  0
 19 20  1  0  0  0  0
  8 21  1  0  0  0  0
 21 22  1  0  0  0  0
  3 23  1  0  0  0  0
 21 23  1  0  0  0  0
 23 24  1  0  0  0  0
  1 25  1  0  0  0  0
  1 26  1  0  0  0  0
  1 27  1  0  0  0  0
  3 28  1  0  0  0  0
  5 29  1  0  0  0  0
  6 30  1  0  0  0  0
  6 31  1  0  0  0  0
  7 32  1  0  0  0  0
  8 33  1  0  0  0  0
 10 34  1  0  0  0  0
 12 35  1  0  0  0  0
 13 36  1  0  0  0  0
 13 37  1  0  0  0  0
 14 38  1  0  0  0  0
 15 39  1  0  0  0  0
 16 40  1  0  0  0  0
 17 41  1  0  0  0  0
 18 42  1  0  0  0  0
 19 43  1  0  0  0  0
 20 44  1  0  0  0  0
 21 45  1  0  0  0  0
 22 46  1  0  0  0  0
 23 47  1  0  0  0  0
 24 48  1  0  0  0  0
M  END
