 xtb: 6.7.1 (edcfbbe)
          09222613043D

 48 49  0     0  0            999 V2000
    5.5252    1.4603   -0.1988 C   0  0  0  0  0  0  0  0  0  0  0  0
    4.3028    1.3552   -0.9170 O   0  0  0  0  0  0  0  0  0  0  0  0
    3.1752    1.2811   -0.1264 C   0  0  0  0  0  0  0  0  0  0  0  0
    3.1152    0.0068    0.4775 O   0  0  0  0  0  0  0  0  0  0  0  0
    1.9901   -0.1596    1.3128 C   0  0  0  0  0  0  0  0  0  0  0  0
    2.1526   -1.5133    2.0157 C   0  0  0  0  0  0  0  0  0  0  0  0
    3.2553   -1.5289    2.8808 O   0  0  0  0  0  0  0  0  0  0  0  0
    0.6608   -0.0962    0.5271 C   0  0  0  0  0  0  0  0  0  0  0  0
   -0.3536   -0.0674    1.5257 O   0  0  0  0  0  0  0  0  0  0  0  0
   -1.4903   -0.8964    1.5936 C   0  0  0  0  0  0  0  0  0  0  0  0
   -2.6621   -0.1295    1.5521 O   0  0  0  0  0  0  0  0  0  0  0  0
   -3.0423    0.3499    0.2669 C   0  0  0  0  0  0  0  0  0  0  0  0
   -4.2892    1.2240    0.4691 C   0  0  0  0  0  0  0  0  0  0  0  0
   -4.6915    1.8495   -0.7252 O   0  0  0  0  0  0  0  0  0  0  0  0
   -3.3340   -0.8310   -0.6717 C   0  0  0  0  0  0  0  0  0  0  0  0
   -3.6541   -0.4237   -1.9780 O   0  0  0  0  0  0  0  0  0  0  0  0
   -2.0867   -1.7155   -0.7610 C   0  0  0  0  0  0  0  0  0  0  0  0
   -2.3416   -2.9125   -1.4572 O   0  0  0  0  0  0  0  0  0  0  0  0
   -1.6194   -2.1074    0.6463 C   0  0  0  0  0  0  0  0  0  0  0  0
   -0.4261   -2.8437    0.6194 O   0  0  0  0  0  0  0  0  0  0  0  0
    0.6338    1.2135   -0.2924 C   0  0  0  0  0  0  0  0  0  0  0  0
   -0.4188    1.2778   -1.2269 O   0  0  0  0  0  0  0  0  0  0  0  0
    1.9554    1.4985   -1.0267 C   0  0  0  0  0  0  0  0  0  0  0  0
    1.9822    2.8267   -1.4745 O   0  0  0  0  0  0  0  0  0  0  0  0
    5.7124    0.5571    0.3851 H   0  0  0  0  0  0  0  0  0  0  0  0
    5.5060    2.3304    0.4647 H   0  0  0  0  0  0  0  0  0  0  0  0
    6.2970    1.5842   -0.9537 H   0  0  0  0  0  0  0  0  0  0  0  0
    3.1844    2.0628    0.6635 H   0  0  0  0  0  0  0  0  0  0  0  0
    1.9659    0.6405    2.0699 H   0  0  0  0  0  0  0  0  0  0  0  0
    2.2379   -2.2951    1.2517 H   0  0  0  0  0  0  0  0  0  0  0  0
    1.2692   -1.7071    2.6240 H   0  0  0  0  0  0  0  0  0  0  0  0
    4.0441   -1.3300    2.3596 H   0  0  0  0  0  0  0  0  0  0  0  0
    0.5824   -0.9716   -0.1205 H   0  0  0  0  0  0  0  0  0  0  0  0
   -1.4812   -1.2845    2.6250 H   0  0  0  0  0  0  0  0  0  0  0  0
   -2.2356    0.9558   -0.1673 H   0  0  0  0  0  0  0  0  0  0  0  0
   -4.0809    1.9500    1.2611 H   0  0  0  0  0  0  0  0  0  0  0  0
   -5.1243    0.5967    0.7892 H   0  0  0  0  0  0  0  0  0  0  0  0
   -4.0640    2.5503   -0.9468 H   0  0  0  0  0  0  0  0  0  0  0  0
   -4.1557   -1.4293   -0.2408 H   0  0  0  0  0  0  0  0  0  0  0  0
   -4.2967    0.3044   -1.9191 H   0  0  0  0  0  0  0  0  0  0  0  0
   -1.3032   -1.1473   -1.2815 H   0  0  0  0  0  0  0  0  0  0  0  0
   -2.8179   -2.6875   -2.2680 H   0  0  0  0  0  0  0  0  0  0  0  0
   -2.4283   -2.7204    1.0791 H   0  0  0  0  0  0  0  0  0  0  0  0
   -0.5758   -3.6154    0.0528 H   0  0  0  0  0  0  0  0  0  0  0  0
    0.4406    2.0296    0.4144 H   0  0  0  0  0  0  0  0  0  0  0  0
   -0.2312    0.6941   -1.9762 H   0  0  0  0  0  0  0  0  0  0  0  0
    2.0635    0.8000   -1.8743 H   0  0  0  0  0  0  0  0  0  0  0  0
    1.1523    3.0138   -1.9397 H   0  0  0  0  0  0  0  0  0  0  0  0
  1  2  1  0  0  0  0
  2  3  1  0  0  0  0
  3  4  1  0  0  0  0
  4  5  1  0  0  0  0
  5  6  1  0  0  0  0
  6  7  1  0  0  0  0
  5  8  1  0  0  0  0
  8  9  1  0  0  0  0
  9 10  1  0  0  0  0
 10 11  1  0  0  0  0
 11 12  1  0  0  0  0
 12 13  1  0  0  0  0
 13 14  1  0  0  0  0
 12 15  1  0  0  0  0
 15 16  1  0  0  0  0
 15 17  1  0  0  0  0
 17 18  1  0  0  0  0
 10 19  1  0  0  0  0
 17 19  1  0  0  0  0
 19 20  1  0  0  0  0
  8 21  1  0  0  0  0
 21 22  1  0  0  0  0
  3 23  1  0  0  0  0
 21 23  1  0  0  0  0
 23 24  1  0  0  0  0
  1 25  1  0  0  0  0
  1 26  1  0  0  0  0
  1 27  1  0  0  0  0
  3 28  1  0  0  0  0
  5 29  1  0  0  0  0
  6 30  1  0  0  0  0
  6 31  1  0  0  0  0
  7 32  1  0  0  0  0
  8 33  1  0  0  0  0
 10 34  1  0  0  0  0
 12 35  1  0  0  0  0
 13 36  1  0  0  0  0
 13 37  1  0  0  0  0
 14 38  1  0  0  0  0
 15 39  1  0  0  0  0
 16 40  1  0  0  0  0
 17 41  1  0  0  0  0
 18 42  1  0  0  0  0
 19 43  1  0  0  0  0
 20 44  1  0  0  0  0
 21 45  1  0  0  0  0
 22 46  1  0  0  0  0
 23 47  1  0  0  0  0
 24 48  1  0  0  0  0
M  END
