 xtb: 6.7.1 (edcfbbe)
          09212615413D

 48 49  0     0  0            999 V2000
    4.6746    0.8562    0.6906 C   0  0  0  0  0  0  0  0  0  0  0  0
    3.6820    0.3277   -0.1815 O   0  0  0  0  0  0  0  0  0  0  0  0
    3.1724    1.2588   -1.0978 C   0  0  0  0  0  0  0  0  0  0  0  0
    2.4744    2.3023   -0.4750 O   0  0  0  0  0  0  0  0  0  0  0  0
    1.0816    2.0730   -0.2609 C   0  0  0  0  0  0  0  0  0  0  0  0
    0.6648    2.9785    0.9032 C   0  0  0  0  0  0  0  0  0  0  0  0
    0.7528    4.3388    0.5735 O   0  0  0  0  0  0  0  0  0  0  0  0
    0.8037    0.5892    0.0283 C   0  0  0  0  0  0  0  0  0  0  0  0
   -0.5770    0.4572    0.3353 O   0  0  0  0  0  0  0  0  0  0  0  0
   -0.9484   -0.2190    1.5152 C   0  0  0  0  0  0  0  0  0  0  0  0
   -2.3159   -0.0009    1.6804 O   0  0  0  0  0  0  0  0  0  0  0  0
   -3.1010   -0.5544    0.6241 C   0  0  0  0  0  0  0  0  0  0  0  0
   -4.5650   -0.2184    0.9489 C   0  0  0  0  0  0  0  0  0  0  0  0
   -5.4377   -0.5886   -0.0899 O   0  0  0  0  0  0  0  0  0  0  0  0
   -2.8942   -2.0748    0.4957 C   0  0  0  0  0  0  0  0  0  0  0  0
   -3.5258   -2.5868   -0.6511 O   0  0  0  0  0  0  0  0  0  0  0  0
   -1.3984   -2.4097    0.3966 C   0  0  0  0  0  0  0  0  0  0  0  0
   -1.1696   -3.7944    0.5038 O   0  0  0  0  0  0  0  0  0  0  0  0
   -0.6761   -1.7319    1.5610 C   0  0  0  0  0  0  0  0  0  0  0  0
    0.6978   -1.9934    1.5960 O   0  0  0  0  0  0  0  0  0  0  0  0
    1.1388   -0.2060   -1.2596 C   0  0  0  0  0  0  0  0  0  0  0  0
    1.4377   -1.5509   -1.0310 O   0  0  0  0  0  0  0  0  0  0  0  0
    2.2704    0.4787   -2.0646 C   0  0  0  0  0  0  0  0  0  0  0  0
    1.6972    1.3160   -3.0323 O   0  0  0  0  0  0  0  0  0  0  0  0
    4.2751    1.6951    1.2639 H   0  0  0  0  0  0  0  0  0  0  0  0
    5.5442    1.1871    0.1164 H   0  0  0  0  0  0  0  0  0  0  0  0
    4.9478    0.0418    1.3548 H   0  0  0  0  0  0  0  0  0  0  0  0
    4.0046    1.7551   -1.6255 H   0  0  0  0  0  0  0  0  0  0  0  0
    0.5226    2.3631   -1.1602 H   0  0  0  0  0  0  0  0  0  0  0  0
    1.2953    2.7497    1.7735 H   0  0  0  0  0  0  0  0  0  0  0  0
   -0.3796    2.7840    1.1511 H   0  0  0  0  0  0  0  0  0  0  0  0
    1.6481    4.5176    0.2499 H   0  0  0  0  0  0  0  0  0  0  0  0
    1.4172    0.2373    0.8626 H   0  0  0  0  0  0  0  0  0  0  0  0
   -0.4602    0.2519    2.3836 H   0  0  0  0  0  0  0  0  0  0  0  0
   -2.8060   -0.0870   -0.3256 H   0  0  0  0  0  0  0  0  0  0  0  0
   -4.6317    0.8477    1.1822 H   0  0  0  0  0  0  0  0  0  0  0  0
   -4.8722   -0.7833    1.8321 H   0  0  0  0  0  0  0  0  0  0  0  0
   -5.3778    0.0534   -0.8118 H   0  0  0  0  0  0  0  0  0  0  0  0
   -3.2880   -2.5657    1.4017 H   0  0  0  0  0  0  0  0  0  0  0  0
   -4.4536   -2.2897   -0.6471 H   0  0  0  0  0  0  0  0  0  0  0  0
   -0.9994   -2.0304   -0.5537 H   0  0  0  0  0  0  0  0  0  0  0  0
   -1.6620   -4.2406   -0.2001 H   0  0  0  0  0  0  0  0  0  0  0  0
   -1.1423   -2.0867    2.4972 H   0  0  0  0  0  0  0  0  0  0  0  0
    0.8090   -2.9454    1.4417 H   0  0  0  0  0  0  0  0  0  0  0  0
    0.2434   -0.1920   -1.8923 H   0  0  0  0  0  0  0  0  0  0  0  0
    2.1937   -1.6040   -0.4267 H   0  0  0  0  0  0  0  0  0  0  0  0
    2.8643   -0.3197   -2.5286 H   0  0  0  0  0  0  0  0  0  0  0  0
    2.3688    1.6132   -3.6644 H   0  0  0  0  0  0  0  0  0  0  0  0
  1  2  1  0  0  0  0
  2  3  1  0  0  0  0
  3  4  1  0  0  0  0
  4  5  1  0  0  0  0
  5  6  1  0  0  0  0
  6  7  1  0  0  0  0
  5  8  1  0  0  0  0
  8  9  1  0  0  0  0
  9 10  1  0  0  0  0
 10 11  1  0  0  0  0
 11 12  1  0  0  0  0
 12 13  1  0  0  0  0
 13 14  1  0  0  0  0
 12 15  1  0  0  0  0
 15 16  1  0  0  0  0
 15 17  1  0  0  0  0
 17 18  1  0  0  0  0
 10 19  1  0  0  0  0
 17 19  1  0  0  0  0
 19 20  1  0  0  0  0
  8 21  1  0  0  0  0
 21 22  1  0  0  0  0
  3 23  1  0  0  0  0
 21 23  1  0  0  0  0
 23 24  1  0  0  0  0
  1 25  1  0  0  0  0
  1 26  1  0  0  0  0
  1 27  1  0  0  0  0
  3 28  1  0  0  0  0
  5 29  1  0  0  0  0
  6 30  1  0  0  0  0
  6 31  1  0  0  0  0
  7 32  1  0  0  0  0
  8 33  1  0  0  0  0
 10 34  1  0  0  0  0
 12 35  1  0  0  0  0
 13 36  1  0  0  0  0
 13 37  1  0  0  0  0
 14 38  1  0  0  0  0
 15 39  1  0  0  0  0
 16 40  1  0  0  0  0
 17 41  1  0  0  0  0
 18 42  1  0  0  0  0
 19 43  1  0  0  0  0
 20 44  1  0  0  0  0
 21 45  1  0  0  0  0
 22 46  1  0  0  0  0
 23 47  1  0  0  0  0
 24 48  1  0  0  0  0
M  END
