 xtb: 6.7.1 (edcfbbe)
          09222613243D

 48 49  0     0  0            999 V2000
    5.5495    1.6925   -0.6084 C   0  0  0  0  0  0  0  0  0  0  0  0
    4.7529    0.6775   -0.0294 O   0  0  0  0  0  0  0  0  0  0  0  0
    3.5734    0.4279   -0.6965 C   0  0  0  0  0  0  0  0  0  0  0  0
    2.6957    1.5156   -0.4793 O   0  0  0  0  0  0  0  0  0  0  0  0
    1.4262    1.3602   -1.0787 C   0  0  0  0  0  0  0  0  0  0  0  0
    0.6821    2.6876   -0.8914 C   0  0  0  0  0  0  0  0  0  0  0  0
    1.3915    3.7440   -1.4754 O   0  0  0  0  0  0  0  0  0  0  0  0
    0.7013    0.1629   -0.4448 C   0  0  0  0  0  0  0  0  0  0  0  0
   -0.5742   -0.0086   -1.0482 O   0  0  0  0  0  0  0  0  0  0  0  0
   -1.6878   -0.1595   -0.2369 C   0  0  0  0  0  0  0  0  0  0  0  0
   -1.3910   -0.9907    0.8738 O   0  0  0  0  0  0  0  0  0  0  0  0
   -2.5395   -1.6226    1.4259 C   0  0  0  0  0  0  0  0  0  0  0  0
   -2.6667   -3.0536    0.8628 C   0  0  0  0  0  0  0  0  0  0  0  0
   -1.5100   -3.8061    1.0814 O   0  0  0  0  0  0  0  0  0  0  0  0
   -3.8349   -0.8221    1.1883 C   0  0  0  0  0  0  0  0  0  0  0  0
   -4.8126   -1.1228    2.1522 O   0  0  0  0  0  0  0  0  0  0  0  0
   -3.6116    0.7089    1.0993 C   0  0  0  0  0  0  0  0  0  0  0  0
   -4.6789    1.2981    0.4071 O   0  0  0  0  0  0  0  0  0  0  0  0
   -2.2954    1.1158    0.3855 C   0  0  0  0  0  0  0  0  0  0  0  0
   -1.4031    1.7097    1.2882 O   0  0  0  0  0  0  0  0  0  0  0  0
    1.5447   -1.1039   -0.6371 C   0  0  0  0  0  0  0  0  0  0  0  0
    0.9972   -2.2303    0.0112 O   0  0  0  0  0  0  0  0  0  0  0  0
    2.9871   -0.8789   -0.1449 C   0  0  0  0  0  0  0  0  0  0  0  0
    3.8049   -1.9355   -0.5642 O   0  0  0  0  0  0  0  0  0  0  0  0
    5.0417    2.6599   -0.5761 H   0  0  0  0  0  0  0  0  0  0  0  0
    5.7968    1.4470   -1.6468 H   0  0  0  0  0  0  0  0  0  0  0  0
    6.4584    1.7328   -0.0131 H   0  0  0  0  0  0  0  0  0  0  0  0
    3.7427    0.3076   -1.7874 H   0  0  0  0  0  0  0  0  0  0  0  0
    1.5472    1.1661   -2.1571 H   0  0  0  0  0  0  0  0  0  0  0  0
    0.5216    2.8642    0.1795 H   0  0  0  0  0  0  0  0  0  0  0  0
   -0.2829    2.6348   -1.3956 H   0  0  0  0  0  0  0  0  0  0  0  0
    2.2860    3.7180   -1.1139 H   0  0  0  0  0  0  0  0  0  0  0  0
    0.6006    0.3582    0.6285 H   0  0  0  0  0  0  0  0  0  0  0  0
   -2.4296   -0.6233   -0.9010 H   0  0  0  0  0  0  0  0  0  0  0  0
   -2.3336   -1.6909    2.5031 H   0  0  0  0  0  0  0  0  0  0  0  0
   -2.9023   -2.9948   -0.2089 H   0  0  0  0  0  0  0  0  0  0  0  0
   -3.4837   -3.5635    1.3773 H   0  0  0  0  0  0  0  0  0  0  0  0
   -0.7889   -3.4280    0.5575 H   0  0  0  0  0  0  0  0  0  0  0  0
   -4.2884   -1.1419    0.2425 H   0  0  0  0  0  0  0  0  0  0  0  0
   -4.4793   -0.9146    3.0341 H   0  0  0  0  0  0  0  0  0  0  0  0
   -3.5620    1.1131    2.1273 H   0  0  0  0  0  0  0  0  0  0  0  0
   -5.5077    0.9822    0.7902 H   0  0  0  0  0  0  0  0  0  0  0  0
   -2.5270    1.8660   -0.3716 H   0  0  0  0  0  0  0  0  0  0  0  0
   -1.0944    1.0216    1.8945 H   0  0  0  0  0  0  0  0  0  0  0  0
    1.5667   -1.3616   -1.7021 H   0  0  0  0  0  0  0  0  0  0  0  0
    0.6838   -1.9593    0.8850 H   0  0  0  0  0  0  0  0  0  0  0  0
    2.9902   -0.7993    0.9551 H   0  0  0  0  0  0  0  0  0  0  0  0
    3.3433   -2.7600   -0.3581 H   0  0  0  0  0  0  0  0  0  0  0  0
  1  2  1  0  0  0  0
  2  3  1  0  0  0  0
  3  4  1  0  0  0  0
  4  5  1  0  0  0  0
  5  6  1  0  0  0  0
  6  7  1  0  0  0  0
  5  8  1  0  0  0  0
  8  9  1  0  0  0  0
  9 10  1  0  0  0  0
 10 11  1  0  0  0  0
 11 12  1  0  0  0  0
 12 13  1  0  0  0  0
 13 14  1  0  0  0  0
 12 15  1  0  0  0  0
 15 16  1  0  0  0  0
 15 17  1  0  0  0  0
 17 18  1  0  0  0  0
 10 19  1  0  0  0  0
 17 19  1  0  0  0  0
 19 20  1  0  0  0  0
  8 21  1  0  0  0  0
 21 22  1  0  0  0  0
  3 23  1  0  0  0  0
 21 23  1  0  0  0  0
 23 24  1  0  0  0  0
  1 25  1  0  0  0  0
  1 26  1  0  0  0  0
  1 27  1  0  0  0  0
  3 28  1  0  0  0  0
  5 29  1  0  0  0  0
  6 30  1  0  0  0  0
  6 31  1  0  0  0  0
  7 32  1  0  0  0  0
  8 33  1  0  0  0  0
 10 34  1  0  0  0  0
 12 35  1  0  0  0  0
 13 36  1  0  0  0  0
 13 37  1  0  0  0  0
 14 38  1  0  0  0  0
 15 39  1  0  0  0  0
 16 40  1  0  0  0  0
 17 41  1  0  0  0  0
 18 42  1  0  0  0  0
 19 43  1  0  0  0  0
 20 44  1  0  0  0  0
 21 45  1  0  0  0  0
 22 46  1  0  0  0  0
 23 47  1  0  0  0  0
 24 48  1  0  0  0  0
M  END
