 xtb: 6.7.1 (edcfbbe)
          09212615443D

 48 49  0     0  0            999 V2000
    1.8917    4.5188   -0.2983 C   0  0  0  0  0  0  0  0  0  0  0  0
    1.9465    3.2972   -1.0290 O   0  0  0  0  0  0  0  0  0  0  0  0
    1.5321    2.1827   -0.3151 C   0  0  0  0  0  0  0  0  0  0  0  0
    2.4333    1.9353    0.7421 O   0  0  0  0  0  0  0  0  0  0  0  0
    1.9717    0.9405    1.6379 C   0  0  0  0  0  0  0  0  0  0  0  0
    3.2181    0.3228    2.2940 C   0  0  0  0  0  0  0  0  0  0  0  0
    2.9070   -0.5179    3.3703 O   0  0  0  0  0  0  0  0  0  0  0  0
    1.0921   -0.1375    0.9706 C   0  0  0  0  0  0  0  0  0  0  0  0
   -0.2601    0.3134    1.0104 O   0  0  0  0  0  0  0  0  0  0  0  0
   -1.3396   -0.4599    1.4980 C   0  0  0  0  0  0  0  0  0  0  0  0
   -2.4714   -0.0529    0.7868 O   0  0  0  0  0  0  0  0  0  0  0  0
   -2.4748   -0.4611   -0.5806 C   0  0  0  0  0  0  0  0  0  0  0  0
   -3.7390    0.1513   -1.2045 C   0  0  0  0  0  0  0  0  0  0  0  0
   -3.8542   -0.1344   -2.5761 O   0  0  0  0  0  0  0  0  0  0  0  0
   -2.4974   -1.9961   -0.6833 C   0  0  0  0  0  0  0  0  0  0  0  0
   -2.3874   -2.4462   -2.0102 O   0  0  0  0  0  0  0  0  0  0  0  0
   -1.3260   -2.6008    0.1011 C   0  0  0  0  0  0  0  0  0  0  0  0
   -1.4745   -3.9925    0.2586 O   0  0  0  0  0  0  0  0  0  0  0  0
   -1.2777   -2.0002    1.5086 C   0  0  0  0  0  0  0  0  0  0  0  0
   -0.1843   -2.4580    2.2548 O   0  0  0  0  0  0  0  0  0  0  0  0
    1.5247   -0.3442   -0.4961 C   0  0  0  0  0  0  0  0  0  0  0  0
    2.7715   -0.9823   -0.4861 O   0  0  0  0  0  0  0  0  0  0  0  0
    1.5410    0.9881   -1.2782 C   0  0  0  0  0  0  0  0  0  0  0  0
    0.4374    1.0153   -2.1467 O   0  0  0  0  0  0  0  0  0  0  0  0
    2.5581    4.4767    0.5643 H   0  0  0  0  0  0  0  0  0  0  0  0
    0.8684    4.7144    0.0351 H   0  0  0  0  0  0  0  0  0  0  0  0
    2.2185    5.2863   -0.9937 H   0  0  0  0  0  0  0  0  0  0  0  0
    0.5136    2.3287    0.0958 H   0  0  0  0  0  0  0  0  0  0  0  0
    1.3446    1.4257    2.4064 H   0  0  0  0  0  0  0  0  0  0  0  0
    3.8801    1.1427    2.5957 H   0  0  0  0  0  0  0  0  0  0  0  0
    3.7316   -0.2935    1.5548 H   0  0  0  0  0  0  0  0  0  0  0  0
    2.5408    0.0038    4.0987 H   0  0  0  0  0  0  0  0  0  0  0  0
    1.2179   -1.0693    1.5245 H   0  0  0  0  0  0  0  0  0  0  0  0
   -1.5326   -0.1381    2.5350 H   0  0  0  0  0  0  0  0  0  0  0  0
   -1.5767   -0.0769   -1.0875 H   0  0  0  0  0  0  0  0  0  0  0  0
   -3.7363    1.2269   -1.0079 H   0  0  0  0  0  0  0  0  0  0  0  0
   -4.6161   -0.2845   -0.7201 H   0  0  0  0  0  0  0  0  0  0  0  0
   -3.2286    0.4091   -3.0759 H   0  0  0  0  0  0  0  0  0  0  0  0
   -3.4334   -2.3612   -0.2278 H   0  0  0  0  0  0  0  0  0  0  0  0
   -3.0588   -1.9854   -2.5457 H   0  0  0  0  0  0  0  0  0  0  0  0
   -0.3926   -2.3887   -0.4358 H   0  0  0  0  0  0  0  0  0  0  0  0
   -1.6078   -4.3876   -0.6157 H   0  0  0  0  0  0  0  0  0  0  0  0
   -2.2164   -2.3032    2.0051 H   0  0  0  0  0  0  0  0  0  0  0  0
   -0.1855   -3.4288    2.2295 H   0  0  0  0  0  0  0  0  0  0  0  0
    0.7694   -0.9684   -0.9935 H   0  0  0  0  0  0  0  0  0  0  0  0
    2.9948   -1.2918   -1.3769 H   0  0  0  0  0  0  0  0  0  0  0  0
    2.4844    1.0518   -1.8403 H   0  0  0  0  0  0  0  0  0  0  0  0
    0.4821    1.8300   -2.6697 H   0  0  0  0  0  0  0  0  0  0  0  0
  1  2  1  0  0  0  0
  2  3  1  0  0  0  0
  3  4  1  0  0  0  0
  4  5  1  0  0  0  0
  5  6  1  0  0  0  0
  6  7  1  0  0  0  0
  5  8  1  0  0  0  0
  8  9  1  0  0  0  0
  9 10  1  0  0  0  0
 10 11  1  0  0  0  0
 11 12  1  0  0  0  0
 12 13  1  0  0  0  0
 13 14  1  0  0  0  0
 12 15  1  0  0  0  0
 15 16  1  0  0  0  0
 15 17  1  0  0  0  0
 17 18  1  0  0  0  0
 10 19  1  0  0  0  0
 17 19  1  0  0  0  0
 19 20  1  0  0  0  0
  8 21  1  0  0  0  0
 21 22  1  0  0  0  0
  3 23  1  0  0  0  0
 21 23  1  0  0  0  0
 23 24  1  0  0  0  0
  1 25  1  0  0  0  0
  1 26  1  0  0  0  0
  1 27  1  0  0  0  0
  3 28  1  0  0  0  0
  5 29  1  0  0  0  0
  6 30  1  0  0  0  0
  6 31  1  0  0  0  0
  7 32  1  0  0  0  0
  8 33  1  0  0  0  0
 10 34  1  0  0  0  0
 12 35  1  0  0  0  0
 13 36  1  0  0  0  0
 13 37  1  0  0  0  0
 14 38  1  0  0  0  0
 15 39  1  0  0  0  0
 16 40  1  0  0  0  0
 17 41  1  0  0  0  0
 18 42  1  0  0  0  0
 19 43  1  0  0  0  0
 20 44  1  0  0  0  0
 21 45  1  0  0  0  0
 22 46  1  0  0  0  0
 23 47  1  0  0  0  0
 24 48  1  0  0  0  0
M  END
