 xtb: 6.7.1 (edcfbbe)
          09212615403D

 48 49  0     0  0            999 V2000
    5.5363   -1.2656    0.1864 C   0  0  0  0  0  0  0  0  0  0  0  0
    4.8766   -0.1431    0.7657 O   0  0  0  0  0  0  0  0  0  0  0  0
    3.4997   -0.2514    0.8466 C   0  0  0  0  0  0  0  0  0  0  0  0
    2.9455   -0.2583   -0.4510 O   0  0  0  0  0  0  0  0  0  0  0  0
    1.5395   -0.4142   -0.4563 C   0  0  0  0  0  0  0  0  0  0  0  0
    1.0956   -0.4203   -1.9258 C   0  0  0  0  0  0  0  0  0  0  0  0
    1.3061   -1.6578   -2.5475 O   0  0  0  0  0  0  0  0  0  0  0  0
    0.8255    0.6931    0.3408 C   0  0  0  0  0  0  0  0  0  0  0  0
   -0.5227    0.2851    0.5251 O   0  0  0  0  0  0  0  0  0  0  0  0
   -1.5355    1.2034    0.2192 C   0  0  0  0  0  0  0  0  0  0  0  0
   -2.0921    0.9664   -1.0458 O   0  0  0  0  0  0  0  0  0  0  0  0
   -2.7014   -0.3162   -1.2043 C   0  0  0  0  0  0  0  0  0  0  0  0
   -3.2850   -0.3485   -2.6238 C   0  0  0  0  0  0  0  0  0  0  0  0
   -2.3038   -0.1938   -3.6137 O   0  0  0  0  0  0  0  0  0  0  0  0
   -3.7964   -0.5574   -0.1558 C   0  0  0  0  0  0  0  0  0  0  0  0
   -4.3520   -1.8432   -0.2508 O   0  0  0  0  0  0  0  0  0  0  0  0
   -3.2383   -0.2985    1.2509 C   0  0  0  0  0  0  0  0  0  0  0  0
   -4.2489   -0.3732    2.2283 O   0  0  0  0  0  0  0  0  0  0  0  0
   -2.6296    1.1061    1.2996 C   0  0  0  0  0  0  0  0  0  0  0  0
   -2.0695    1.3981    2.5460 O   0  0  0  0  0  0  0  0  0  0  0  0
    1.4650    0.9627    1.7099 C   0  0  0  0  0  0  0  0  0  0  0  0
    0.9924    2.2112    2.1455 O   0  0  0  0  0  0  0  0  0  0  0  0
    2.9976    0.9678    1.6313 C   0  0  0  0  0  0  0  0  0  0  0  0
    3.4864    0.9723    2.9463 O   0  0  0  0  0  0  0  0  0  0  0  0
    5.2643   -1.3683   -0.8641 H   0  0  0  0  0  0  0  0  0  0  0  0
    5.2777   -2.1792    0.7284 H   0  0  0  0  0  0  0  0  0  0  0  0
    6.5977   -1.0564    0.2820 H   0  0  0  0  0  0  0  0  0  0  0  0
    3.2041   -1.1847    1.3723 H   0  0  0  0  0  0  0  0  0  0  0  0
    1.2745   -1.3782    0.0080 H   0  0  0  0  0  0  0  0  0  0  0  0
    1.6302    0.3835   -2.4443 H   0  0  0  0  0  0  0  0  0  0  0  0
    0.0234   -0.2332   -1.9804 H   0  0  0  0  0  0  0  0  0  0  0  0
    2.2568   -1.8209   -2.6207 H   0  0  0  0  0  0  0  0  0  0  0  0
    0.8633    1.6299   -0.2296 H   0  0  0  0  0  0  0  0  0  0  0  0
   -1.1424    2.2254    0.1893 H   0  0  0  0  0  0  0  0  0  0  0  0
   -1.9274   -1.0918   -1.1026 H   0  0  0  0  0  0  0  0  0  0  0  0
   -4.0456    0.4373   -2.7032 H   0  0  0  0  0  0  0  0  0  0  0  0
   -3.7521   -1.3193   -2.7960 H   0  0  0  0  0  0  0  0  0  0  0  0
   -1.9137    0.6863   -3.5191 H   0  0  0  0  0  0  0  0  0  0  0  0
   -4.6289    0.1339   -0.3315 H   0  0  0  0  0  0  0  0  0  0  0  0
   -3.6507   -2.5096   -0.1951 H   0  0  0  0  0  0  0  0  0  0  0  0
   -2.4400   -1.0248    1.4732 H   0  0  0  0  0  0  0  0  0  0  0  0
   -4.8191   -1.1309    2.0249 H   0  0  0  0  0  0  0  0  0  0  0  0
   -3.4150    1.8376    1.0486 H   0  0  0  0  0  0  0  0  0  0  0  0
   -2.7167    1.1534    3.2273 H   0  0  0  0  0  0  0  0  0  0  0  0
    1.1518    0.1685    2.4028 H   0  0  0  0  0  0  0  0  0  0  0  0
    1.3385    2.3807    3.0347 H   0  0  0  0  0  0  0  0  0  0  0  0
    3.3227    1.8657    1.0849 H   0  0  0  0  0  0  0  0  0  0  0  0
    4.4555    0.9703    2.9269 H   0  0  0  0  0  0  0  0  0  0  0  0
  1  2  1  0  0  0  0
  2  3  1  0  0  0  0
  3  4  1  0  0  0  0
  4  5  1  0  0  0  0
  5  6  1  0  0  0  0
  6  7  1  0  0  0  0
  5  8  1  0  0  0  0
  8  9  1  0  0  0  0
  9 10  1  0  0  0  0
 10 11  1  0  0  0  0
 11 12  1  0  0  0  0
 12 13  1  0  0  0  0
 13 14  1  0  0  0  0
 12 15  1  0  0  0  0
 15 16  1  0  0  0  0
 15 17  1  0  0  0  0
 17 18  1  0  0  0  0
 10 19  1  0  0  0  0
 17 19  1  0  0  0  0
 19 20  1  0  0  0  0
  8 21  1  0  0  0  0
 21 22  1  0  0  0  0
  3 23  1  0  0  0  0
 21 23  1  0  0  0  0
 23 24  1  0  0  0  0
  1 25  1  0  0  0  0
  1 26  1  0  0  0  0
  1 27  1  0  0  0  0
  3 28  1  0  0  0  0
  5 29  1  0  0  0  0
  6 30  1  0  0  0  0
  6 31  1  0  0  0  0
  7 32  1  0  0  0  0
  8 33  1  0  0  0  0
 10 34  1  0  0  0  0
 12 35  1  0  0  0  0
 13 36  1  0  0  0  0
 13 37  1  0  0  0  0
 14 38  1  0  0  0  0
 15 39  1  0  0  0  0
 16 40  1  0  0  0  0
 17 41  1  0  0  0  0
 18 42  1  0  0  0  0
 19 43  1  0  0  0  0
 20 44  1  0  0  0  0
 21 45  1  0  0  0  0
 22 46  1  0  0  0  0
 23 47  1  0  0  0  0
 24 48  1  0  0  0  0
M  END
