 xtb: 6.7.1 (edcfbbe)
          09212615433D

 48 49  0     0  0            999 V2000
    5.5448    1.4536    0.4315 C   0  0  0  0  0  0  0  0  0  0  0  0
    4.3874    1.4611   -0.3982 O   0  0  0  0  0  0  0  0  0  0  0  0
    3.1941    1.2793    0.2721 C   0  0  0  0  0  0  0  0  0  0  0  0
    3.0829   -0.0735    0.6580 O   0  0  0  0  0  0  0  0  0  0  0  0
    1.9018   -0.3442    1.3856 C   0  0  0  0  0  0  0  0  0  0  0  0
    1.9984   -1.7964    1.8667 C   0  0  0  0  0  0  0  0  0  0  0  0
    3.0032   -1.9673    2.8300 O   0  0  0  0  0  0  0  0  0  0  0  0
    0.6200   -0.1011    0.5547 C   0  0  0  0  0  0  0  0  0  0  0  0
   -0.4320   -0.1394    1.5182 O   0  0  0  0  0  0  0  0  0  0  0  0
   -1.6276   -0.8803    1.4507 C   0  0  0  0  0  0  0  0  0  0  0  0
   -2.7424   -0.0452    1.2765 O   0  0  0  0  0  0  0  0  0  0  0  0
   -3.0181    0.4161   -0.0420 C   0  0  0  0  0  0  0  0  0  0  0  0
   -4.2607    1.3138    0.0691 C   0  0  0  0  0  0  0  0  0  0  0  0
   -4.5734    1.9361   -1.1530 O   0  0  0  0  0  0  0  0  0  0  0  0
   -3.2714   -0.7704   -0.9820 C   0  0  0  0  0  0  0  0  0  0  0  0
   -3.4628   -0.3708   -2.3160 O   0  0  0  0  0  0  0  0  0  0  0  0
   -2.0533   -1.6972   -0.9526 C   0  0  0  0  0  0  0  0  0  0  0  0
   -2.2904   -2.8985   -1.6482 O   0  0  0  0  0  0  0  0  0  0  0  0
   -1.7198   -2.0895    0.4941 C   0  0  0  0  0  0  0  0  0  0  0  0
   -0.5513   -2.8613    0.5650 O   0  0  0  0  0  0  0  0  0  0  0  0
    0.6761    1.2847   -0.1242 C   0  0  0  0  0  0  0  0  0  0  0  0
   -0.2762    1.4328   -1.1527 O   0  0  0  0  0  0  0  0  0  0  0  0
    2.0613    1.6478   -0.6886 C   0  0  0  0  0  0  0  0  0  0  0  0
    2.1432    3.0262   -0.9309 O   0  0  0  0  0  0  0  0  0  0  0  0
    5.6810    0.4748    0.8934 H   0  0  0  0  0  0  0  0  0  0  0  0
    5.4618    2.2215    1.2056 H   0  0  0  0  0  0  0  0  0  0  0  0
    6.3752    1.6767   -0.2318 H   0  0  0  0  0  0  0  0  0  0  0  0
    3.1359    1.9267    1.1712 H   0  0  0  0  0  0  0  0  0  0  0  0
    1.8485    0.3206    2.2624 H   0  0  0  0  0  0  0  0  0  0  0  0
    2.1715   -2.4409    0.9985 H   0  0  0  0  0  0  0  0  0  0  0  0
    1.0583   -2.0794    2.3387 H   0  0  0  0  0  0  0  0  0  0  0  0
    3.8537   -1.7407    2.4280 H   0  0  0  0  0  0  0  0  0  0  0  0
    0.5210   -0.8953   -0.1887 H   0  0  0  0  0  0  0  0  0  0  0  0
   -1.7513   -1.2492    2.4786 H   0  0  0  0  0  0  0  0  0  0  0  0
   -2.1742    1.0018   -0.4282 H   0  0  0  0  0  0  0  0  0  0  0  0
   -4.0927    2.0404    0.8689 H   0  0  0  0  0  0  0  0  0  0  0  0
   -5.1240    0.7008    0.3381 H   0  0  0  0  0  0  0  0  0  0  0  0
   -3.9462    2.6542   -1.3208 H   0  0  0  0  0  0  0  0  0  0  0  0
   -4.1469   -1.3333   -0.6170 H   0  0  0  0  0  0  0  0  0  0  0  0
   -4.1084    0.3587   -2.3291 H   0  0  0  0  0  0  0  0  0  0  0  0
   -1.2095   -1.1653   -1.4137 H   0  0  0  0  0  0  0  0  0  0  0  0
   -2.6633   -2.6816   -2.5158 H   0  0  0  0  0  0  0  0  0  0  0  0
   -2.5806   -2.6750    0.8569 H   0  0  0  0  0  0  0  0  0  0  0  0
   -0.6865   -3.6455    0.0086 H   0  0  0  0  0  0  0  0  0  0  0  0
    0.4036    2.0262    0.6359 H   0  0  0  0  0  0  0  0  0  0  0  0
   -0.0069    0.9151   -1.9274 H   0  0  0  0  0  0  0  0  0  0  0  0
    2.2445    1.0789   -1.6147 H   0  0  0  0  0  0  0  0  0  0  0  0
    1.4015    3.2938   -1.4977 H   0  0  0  0  0  0  0  0  0  0  0  0
  1  2  1  0  0  0  0
  2  3  1  0  0  0  0
  3  4  1  0  0  0  0
  4  5  1  0  0  0  0
  5  6  1  0  0  0  0
  6  7  1  0  0  0  0
  5  8  1  0  0  0  0
  8  9  1  0  0  0  0
  9 10  1  0  0  0  0
 10 11  1  0  0  0  0
 11 12  1  0  0  0  0
 12 13  1  0  0  0  0
 13 14  1  0  0  0  0
 12 15  1  0  0  0  0
 15 16  1  0  0  0  0
 15 17  1  0  0  0  0
 17 18  1  0  0  0  0
 10 19  1  0  0  0  0
 17 19  1  0  0  0  0
 19 20  1  0  0  0  0
  8 21  1  0  0  0  0
 21 22  1  0  0  0  0
  3 23  1  0  0  0  0
 21 23  1  0  0  0  0
 23 24  1  0  0  0  0
  1 25  1  0  0  0  0
  1 26  1  0  0  0  0
  1 27  1  0  0  0  0
  3 28  1  0  0  0  0
  5 29  1  0  0  0  0
  6 30  1  0  0  0  0
  6 31  1  0  0  0  0
  7 32  1  0  0  0  0
  8 33  1  0  0  0  0
 10 34  1  0  0  0  0
 12 35  1  0  0  0  0
 13 36  1  0  0  0  0
 13 37  1  0  0  0  0
 14 38  1  0  0  0  0
 15 39  1  0  0  0  0
 16 40  1  0  0  0  0
 17 41  1  0  0  0  0
 18 42  1  0  0  0  0
 19 43  1  0  0  0  0
 20 44  1  0  0  0  0
 21 45  1  0  0  0  0
 22 46  1  0  0  0  0
 23 47  1  0  0  0  0
 24 48  1  0  0  0  0
M  END
