 xtb: 6.7.1 (edcfbbe)
          09222613203D

 48 49  0     0  0            999 V2000
    3.5435   -2.7807   -2.0594 C   0  0  0  0  0  0  0  0  0  0  0  0
    3.1737   -2.3645   -0.7574 O   0  0  0  0  0  0  0  0  0  0  0  0
    2.1830   -1.3985   -0.7296 C   0  0  0  0  0  0  0  0  0  0  0  0
    2.6819   -0.1756   -1.2446 O   0  0  0  0  0  0  0  0  0  0  0  0
    1.6225    0.7282   -1.5363 C   0  0  0  0  0  0  0  0  0  0  0  0
    2.2583    2.0871   -1.8514 C   0  0  0  0  0  0  0  0  0  0  0  0
    3.1817    1.9887   -2.9005 O   0  0  0  0  0  0  0  0  0  0  0  0
    0.6021    0.7861   -0.3735 C   0  0  0  0  0  0  0  0  0  0  0  0
   -0.4960   -0.0271   -0.7551 O   0  0  0  0  0  0  0  0  0  0  0  0
   -1.8436    0.3729   -0.7029 C   0  0  0  0  0  0  0  0  0  0  0  0
   -2.5936   -0.6136   -0.0542 O   0  0  0  0  0  0  0  0  0  0  0  0
   -2.3458   -0.7451    1.3430 C   0  0  0  0  0  0  0  0  0  0  0  0
   -3.1936   -1.9348    1.8073 C   0  0  0  0  0  0  0  0  0  0  0  0
   -2.7443   -3.1338    1.2450 O   0  0  0  0  0  0  0  0  0  0  0  0
   -2.7235    0.5475    2.0771 C   0  0  0  0  0  0  0  0  0  0  0  0
   -2.4502    0.4915    3.4555 O   0  0  0  0  0  0  0  0  0  0  0  0
   -2.0120    1.7505    1.4345 C   0  0  0  0  0  0  0  0  0  0  0  0
   -2.5442    2.9674    1.9114 O   0  0  0  0  0  0  0  0  0  0  0  0
   -2.2128    1.7369   -0.0864 C   0  0  0  0  0  0  0  0  0  0  0  0
   -1.5350    2.7918   -0.7159 O   0  0  0  0  0  0  0  0  0  0  0  0
    1.2928    0.2685    0.9120 C   0  0  0  0  0  0  0  0  0  0  0  0
    2.3547    1.1077    1.2673 O   0  0  0  0  0  0  0  0  0  0  0  0
    1.7551   -1.1891    0.7338 C   0  0  0  0  0  0  0  0  0  0  0  0
    0.7151   -2.0388    1.1303 O   0  0  0  0  0  0  0  0  0  0  0  0
    3.9538   -1.9485   -2.6360 H   0  0  0  0  0  0  0  0  0  0  0  0
    2.6815   -3.1986   -2.5911 H   0  0  0  0  0  0  0  0  0  0  0  0
    4.3030   -3.5467   -1.9243 H   0  0  0  0  0  0  0  0  0  0  0  0
    1.3036   -1.7021   -1.3310 H   0  0  0  0  0  0  0  0  0  0  0  0
    1.0891    0.3645   -2.4281 H   0  0  0  0  0  0  0  0  0  0  0  0
    2.7377    2.4898   -0.9477 H   0  0  0  0  0  0  0  0  0  0  0  0
    1.4805    2.7796   -2.1785 H   0  0  0  0  0  0  0  0  0  0  0  0
    3.7796    1.2599   -2.6935 H   0  0  0  0  0  0  0  0  0  0  0  0
    0.3007    1.8246   -0.2294 H   0  0  0  0  0  0  0  0  0  0  0  0
   -2.2159    0.3586   -1.7388 H   0  0  0  0  0  0  0  0  0  0  0  0
   -1.2840   -0.9840    1.5001 H   0  0  0  0  0  0  0  0  0  0  0  0
   -4.2402   -1.7413    1.5312 H   0  0  0  0  0  0  0  0  0  0  0  0
   -3.1223   -2.0422    2.8914 H   0  0  0  0  0  0  0  0  0  0  0  0
   -2.6307   -2.9756    0.2997 H   0  0  0  0  0  0  0  0  0  0  0  0
   -3.8062    0.7067    1.9994 H   0  0  0  0  0  0  0  0  0  0  0  0
   -1.5550    0.1553    3.5887 H   0  0  0  0  0  0  0  0  0  0  0  0
   -0.9394    1.7097    1.6776 H   0  0  0  0  0  0  0  0  0  0  0  0
   -2.6933    2.8699    2.8604 H   0  0  0  0  0  0  0  0  0  0  0  0
   -3.2981    1.8398   -0.2591 H   0  0  0  0  0  0  0  0  0  0  0  0
   -1.7837    3.6003   -0.2474 H   0  0  0  0  0  0  0  0  0  0  0  0
    0.5962    0.2879    1.7549 H   0  0  0  0  0  0  0  0  0  0  0  0
    3.0672    0.9668    0.6279 H   0  0  0  0  0  0  0  0  0  0  0  0
    2.6457   -1.3459    1.3644 H   0  0  0  0  0  0  0  0  0  0  0  0
    0.9605   -2.9518    0.9429 H   0  0  0  0  0  0  0  0  0  0  0  0
  1  2  1  0  0  0  0
  2  3  1  0  0  0  0
  3  4  1  0  0  0  0
  4  5  1  0  0  0  0
  5  6  1  0  0  0  0
  6  7  1  0  0  0  0
  5  8  1  0  0  0  0
  8  9  1  0  0  0  0
  9 10  1  0  0  0  0
 10 11  1  0  0  0  0
 11 12  1  0  0  0  0
 12 13  1  0  0  0  0
 13 14  1  0  0  0  0
 12 15  1  0  0  0  0
 15 16  1  0  0  0  0
 15 17  1  0  0  0  0
 17 18  1  0  0  0  0
 10 19  1  0  0  0  0
 17 19  1  0  0  0  0
 19 20  1  0  0  0  0
  8 21  1  0  0  0  0
 21 22  1  0  0  0  0
  3 23  1  0  0  0  0
 21 23  1  0  0  0  0
 23 24  1  0  0  0  0
  1 25  1  0  0  0  0
  1 26  1  0  0  0  0
  1 27  1  0  0  0  0
  3 28  1  0  0  0  0
  5 29  1  0  0  0  0
  6 30  1  0  0  0  0
  6 31  1  0  0  0  0
  7 32  1  0  0  0  0
  8 33  1  0  0  0  0
 10 34  1  0  0  0  0
 12 35  1  0  0  0  0
 13 36  1  0  0  0  0
 13 37  1  0  0  0  0
 14 38  1  0  0  0  0
 15 39  1  0  0  0  0
 16 40  1  0  0  0  0
 17 41  1  0  0  0  0
 18 42  1  0  0  0  0
 19 43  1  0  0  0  0
 20 44  1  0  0  0  0
 21 45  1  0  0  0  0
 22 46  1  0  0  0  0
 23 47  1  0  0  0  0
 24 48  1  0  0  0  0
M  END
