 xtb: 6.7.1 (edcfbbe)
          09222613143D

 48 49  0     0  0            999 V2000
    5.7362    0.0502   -0.9122 C   0  0  0  0  0  0  0  0  0  0  0  0
    4.8470    1.0972   -0.5750 O   0  0  0  0  0  0  0  0  0  0  0  0
    3.6518    0.6756   -0.0354 C   0  0  0  0  0  0  0  0  0  0  0  0
    2.8940    0.0753   -1.0710 O   0  0  0  0  0  0  0  0  0  0  0  0
    1.6036   -0.3573   -0.7059 C   0  0  0  0  0  0  0  0  0  0  0  0
    0.9838   -0.9323   -1.9894 C   0  0  0  0  0  0  0  0  0  0  0  0
    1.0370   -0.0014   -3.0317 O   0  0  0  0  0  0  0  0  0  0  0  0
    0.7531    0.8054   -0.1682 C   0  0  0  0  0  0  0  0  0  0  0  0
   -0.4577    0.2898    0.3672 O   0  0  0  0  0  0  0  0  0  0  0  0
   -1.6691    0.7114   -0.1873 C   0  0  0  0  0  0  0  0  0  0  0  0
   -2.2874   -0.3265   -0.9015 O   0  0  0  0  0  0  0  0  0  0  0  0
   -2.5865   -1.4618   -0.1072 C   0  0  0  0  0  0  0  0  0  0  0  0
   -3.2089   -2.5109   -1.0393 C   0  0  0  0  0  0  0  0  0  0  0  0
   -3.4242   -3.7396   -0.3849 O   0  0  0  0  0  0  0  0  0  0  0  0
   -3.5395   -1.0959    1.0438 C   0  0  0  0  0  0  0  0  0  0  0  0
   -3.7745   -2.1793    1.9082 O   0  0  0  0  0  0  0  0  0  0  0  0
   -2.9115    0.0320    1.8685 C   0  0  0  0  0  0  0  0  0  0  0  0
   -3.7782    0.4926    2.8769 O   0  0  0  0  0  0  0  0  0  0  0  0
   -2.5937    1.2047    0.9414 C   0  0  0  0  0  0  0  0  0  0  0  0
   -1.9585    2.2497    1.6309 O   0  0  0  0  0  0  0  0  0  0  0  0
    1.4971    1.5245    0.9641 C   0  0  0  0  0  0  0  0  0  0  0  0
    0.8611    2.7155    1.3470 O   0  0  0  0  0  0  0  0  0  0  0  0
    2.9277    1.8936    0.5479 C   0  0  0  0  0  0  0  0  0  0  0  0
    3.6504    2.3423    1.6597 O   0  0  0  0  0  0  0  0  0  0  0  0
    5.3044   -0.6033   -1.6750 H   0  0  0  0  0  0  0  0  0  0  0  0
    5.9896   -0.5436   -0.0268 H   0  0  0  0  0  0  0  0  0  0  0  0
    6.6301    0.5321   -1.3003 H   0  0  0  0  0  0  0  0  0  0  0  0
    3.8128   -0.0674    0.7740 H   0  0  0  0  0  0  0  0  0  0  0  0
    1.6622   -1.1330    0.0742 H   0  0  0  0  0  0  0  0  0  0  0  0
   -0.0704   -1.1619   -1.8237 H   0  0  0  0  0  0  0  0  0  0  0  0
    1.5228   -1.8515   -2.2616 H   0  0  0  0  0  0  0  0  0  0  0  0
    1.9402    0.3434   -3.0555 H   0  0  0  0  0  0  0  0  0  0  0  0
    0.5519    1.5107   -0.9835 H   0  0  0  0  0  0  0  0  0  0  0  0
   -1.5161    1.5125   -0.9205 H   0  0  0  0  0  0  0  0  0  0  0  0
   -1.6571   -1.8601    0.3327 H   0  0  0  0  0  0  0  0  0  0  0  0
   -2.5671   -2.6270   -1.9193 H   0  0  0  0  0  0  0  0  0  0  0  0
   -4.1898   -2.1656   -1.3725 H   0  0  0  0  0  0  0  0  0  0  0  0
   -2.5729   -4.1519   -0.1966 H   0  0  0  0  0  0  0  0  0  0  0  0
   -4.4892   -0.7314    0.6162 H   0  0  0  0  0  0  0  0  0  0  0  0
   -4.0026   -2.9494    1.3634 H   0  0  0  0  0  0  0  0  0  0  0  0
   -1.9739   -0.3363    2.3136 H   0  0  0  0  0  0  0  0  0  0  0  0
   -4.1408   -0.2870    3.3151 H   0  0  0  0  0  0  0  0  0  0  0  0
   -3.5319    1.5624    0.4898 H   0  0  0  0  0  0  0  0  0  0  0  0
   -2.4350    2.3627    2.4647 H   0  0  0  0  0  0  0  0  0  0  0  0
    1.5516    0.8301    1.8208 H   0  0  0  0  0  0  0  0  0  0  0  0
   -0.0874    2.5401    1.4790 H   0  0  0  0  0  0  0  0  0  0  0  0
    2.8856    2.6692   -0.2311 H   0  0  0  0  0  0  0  0  0  0  0  0
    3.1299    3.0517    2.0598 H   0  0  0  0  0  0  0  0  0  0  0  0
  1  2  1  0  0  0  0
  2  3  1  0  0  0  0
  3  4  1  0  0  0  0
  4  5  1  0  0  0  0
  5  6  1  0  0  0  0
  6  7  1  0  0  0  0
  5  8  1  0  0  0  0
  8  9  1  0  0  0  0
  9 10  1  0  0  0  0
 10 11  1  0  0  0  0
 11 12  1  0  0  0  0
 12 13  1  0  0  0  0
 13 14  1  0  0  0  0
 12 15  1  0  0  0  0
 15 16  1  0  0  0  0
 15 17  1  0  0  0  0
 17 18  1  0  0  0  0
 10 19  1  0  0  0  0
 17 19  1  0  0  0  0
 19 20  1  0  0  0  0
  8 21  1  0  0  0  0
 21 22  1  0  0  0  0
  3 23  1  0  0  0  0
 21 23  1  0  0  0  0
 23 24  1  0  0  0  0
  1 25  1  0  0  0  0
  1 26  1  0  0  0  0
  1 27  1  0  0  0  0
  3 28  1  0  0  0  0
  5 29  1  0  0  0  0
  6 30  1  0  0  0  0
  6 31  1  0  0  0  0
  7 32  1  0  0  0  0
  8 33  1  0  0  0  0
 10 34  1  0  0  0  0
 12 35  1  0  0  0  0
 13 36  1  0  0  0  0
 13 37  1  0  0  0  0
 14 38  1  0  0  0  0
 15 39  1  0  0  0  0
 16 40  1  0  0  0  0
 17 41  1  0  0  0  0
 18 42  1  0  0  0  0
 19 43  1  0  0  0  0
 20 44  1  0  0  0  0
 21 45  1  0  0  0  0
 22 46  1  0  0  0  0
 23 47  1  0  0  0  0
 24 48  1  0  0  0  0
M  END
