 xtb: 6.7.1 (edcfbbe)
          09222613063D

 48 49  0     0  0            999 V2000
    5.5594    1.3832    0.3357 C   0  0  0  0  0  0  0  0  0  0  0  0
    4.3590    1.5583   -0.4055 O   0  0  0  0  0  0  0  0  0  0  0  0
    3.2031    1.2969    0.3007 C   0  0  0  0  0  0  0  0  0  0  0  0
    3.0686   -0.0967    0.4727 O   0  0  0  0  0  0  0  0  0  0  0  0
    1.9366   -0.4509    1.2391 C   0  0  0  0  0  0  0  0  0  0  0  0
    2.0497   -1.9541    1.5122 C   0  0  0  0  0  0  0  0  0  0  0  0
    3.1690   -2.2503    2.3031 O   0  0  0  0  0  0  0  0  0  0  0  0
    0.6068   -0.0638    0.5475 C   0  0  0  0  0  0  0  0  0  0  0  0
   -0.3782   -0.2159    1.5666 O   0  0  0  0  0  0  0  0  0  0  0  0
   -1.6057   -0.8971    1.4883 C   0  0  0  0  0  0  0  0  0  0  0  0
   -2.6993   -0.0323    1.3105 O   0  0  0  0  0  0  0  0  0  0  0  0
   -3.0048    0.4124   -0.0045 C   0  0  0  0  0  0  0  0  0  0  0  0
   -4.2379    1.3222    0.1233 C   0  0  0  0  0  0  0  0  0  0  0  0
   -4.5701    1.9302   -1.1012 O   0  0  0  0  0  0  0  0  0  0  0  0
   -3.2926   -0.7785   -0.9287 C   0  0  0  0  0  0  0  0  0  0  0  0
   -3.5070   -0.3857   -2.2613 O   0  0  0  0  0  0  0  0  0  0  0  0
   -2.0852   -1.7174   -0.9118 C   0  0  0  0  0  0  0  0  0  0  0  0
   -2.3432   -2.9178   -1.6008 O   0  0  0  0  0  0  0  0  0  0  0  0
   -1.7406   -2.1070    0.5333 C   0  0  0  0  0  0  0  0  0  0  0  0
   -0.5923   -2.9061    0.5863 O   0  0  0  0  0  0  0  0  0  0  0  0
    0.6600    1.3985    0.0514 C   0  0  0  0  0  0  0  0  0  0  0  0
   -0.3228    1.6846   -0.9181 O   0  0  0  0  0  0  0  0  0  0  0  0
    2.0253    1.8329   -0.5159 C   0  0  0  0  0  0  0  0  0  0  0  0
    2.1150    3.2316   -0.5373 O   0  0  0  0  0  0  0  0  0  0  0  0
    5.6905    0.3383    0.6238 H   0  0  0  0  0  0  0  0  0  0  0  0
    5.5527    2.0136    1.2303 H   0  0  0  0  0  0  0  0  0  0  0  0
    6.3609    1.6901   -0.3309 H   0  0  0  0  0  0  0  0  0  0  0  0
    3.2154    1.7929    1.2946 H   0  0  0  0  0  0  0  0  0  0  0  0
    1.9621    0.0873    2.2013 H   0  0  0  0  0  0  0  0  0  0  0  0
    2.0969   -2.4826    0.5531 H   0  0  0  0  0  0  0  0  0  0  0  0
    1.1722   -2.2909    2.0617 H   0  0  0  0  0  0  0  0  0  0  0  0
    3.9523   -1.9248    1.8406 H   0  0  0  0  0  0  0  0  0  0  0  0
    0.4356   -0.7456   -0.2910 H   0  0  0  0  0  0  0  0  0  0  0  0
   -1.7367   -1.2594    2.5175 H   0  0  0  0  0  0  0  0  0  0  0  0
   -2.1700    0.9929   -0.4175 H   0  0  0  0  0  0  0  0  0  0  0  0
   -4.0462    2.0596    0.9084 H   0  0  0  0  0  0  0  0  0  0  0  0
   -5.1018    0.7224    0.4190 H   0  0  0  0  0  0  0  0  0  0  0  0
   -3.9307    2.6283   -1.2958 H   0  0  0  0  0  0  0  0  0  0  0  0
   -4.1670   -1.3289   -0.5411 H   0  0  0  0  0  0  0  0  0  0  0  0
   -4.1401    0.3532   -2.2587 H   0  0  0  0  0  0  0  0  0  0  0  0
   -1.2402   -1.1979   -1.3885 H   0  0  0  0  0  0  0  0  0  0  0  0
   -2.7407   -2.6921   -2.4529 H   0  0  0  0  0  0  0  0  0  0  0  0
   -2.6112   -2.6719    0.9093 H   0  0  0  0  0  0  0  0  0  0  0  0
   -0.7392   -3.6578   -0.0073 H   0  0  0  0  0  0  0  0  0  0  0  0
    0.4191    2.0377    0.9089 H   0  0  0  0  0  0  0  0  0  0  0  0
   -0.0943    1.2516   -1.7539 H   0  0  0  0  0  0  0  0  0  0  0  0
    2.1462    1.4207   -1.5322 H   0  0  0  0  0  0  0  0  0  0  0  0
    1.3412    3.5859   -1.0006 H   0  0  0  0  0  0  0  0  0  0  0  0
  1  2  1  0  0  0  0
  2  3  1  0  0  0  0
  3  4  1  0  0  0  0
  4  5  1  0  0  0  0
  5  6  1  0  0  0  0
  6  7  1  0  0  0  0
  5  8  1  0  0  0  0
  8  9  1  0  0  0  0
  9 10  1  0  0  0  0
 10 11  1  0  0  0  0
 11 12  1  0  0  0  0
 12 13  1  0  0  0  0
 13 14  1  0  0  0  0
 12 15  1  0  0  0  0
 15 16  1  0  0  0  0
 15 17  1  0  0  0  0
 17 18  1  0  0  0  0
 10 19  1  0  0  0  0
 17 19  1  0  0  0  0
 19 20  1  0  0  0  0
  8 21  1  0  0  0  0
 21 22  1  0  0  0  0
  3 23  1  0  0  0  0
 21 23  1  0  0  0  0
 23 24  1  0  0  0  0
  1 25  1  0  0  0  0
  1 26  1  0  0  0  0
  1 27  1  0  0  0  0
  3 28  1  0  0  0  0
  5 29  1  0  0  0  0
  6 30  1  0  0  0  0
  6 31  1  0  0  0  0
  7 32  1  0  0  0  0
  8 33  1  0  0  0  0
 10 34  1  0  0  0  0
 12 35  1  0  0  0  0
 13 36  1  0  0  0  0
 13 37  1  0  0  0  0
 14 38  1  0  0  0  0
 15 39  1  0  0  0  0
 16 40  1  0  0  0  0
 17 41  1  0  0  0  0
 18 42  1  0  0  0  0
 19 43  1  0  0  0  0
 20 44  1  0  0  0  0
 21 45  1  0  0  0  0
 22 46  1  0  0  0  0
 23 47  1  0  0  0  0
 24 48  1  0  0  0  0
M  END
